final/Texas2k_series24_cases_with_dynamics/Texas2k_series24_case6_2024lowloadwithgfm/Texas2k_series24_case6_2024lowloadwithgfm.m
% Case saved by PowerWorld Simulator, version 23, build date October 25, 2023
% Case Information Header = 9 lines
% Texas2k_series24_case6_2024lowloadwithgfm
% This is a synthetic power system model that does NOT represent the actual grid. 
% It was developed at Texas A&M University and contains no CEII.
% [1] A.B. Birchfield, T. Xu, K.M. Gegner, K.S. Shetye, and T.J. Overbye,
%  "Grid Structural Characteristics as Validation Criteria for Synthetic Networks,"
%  IEEE Transactions on Power Systems, vol. 32, no. 4, pp. 3258-3265, July 2017.
% [2] J. Baek and A. B. Birchfield, “A tuning method for exciters and governors 
%  in realistic synthetic grids with dynamics,” 2023 North American Power 
%  Symposium (NAPS), Asheville, NC, USA, Oct. 2023, pp. 1-6.
function mpc = Texas2k_series24_case6_2024lowloadwithgfm
mpc.version = '2';
mpc.baseMVA =  100.00;

%% bus data 
mpc.bus = [
1001	1	27.02	5.89	0.00	0.00	1	0.9677401	12.435699	115.00	9	1.100	0.900	18.66	-0.00	0	0
1002	1	20.04	4.37	0.00	0.00	1	1.0253873	40.082603	115.00	9	1.100	0.900	18.66	0.00	0	0
1003	1	0.00	0.00	0.00	0.00	1	0.9931092	28.524198	115.00	9	1.100	0.900	18.66	-0.00	0	0
1004	2	0.00	0.00	0.00	0.00	1	0.9941725	20.058633	230.00	9	1.100	0.900	18.66	-0.00	0	0
1005	1	0.00	0.00	0.00	0.00	1	0.9958969	29.058851	115.00	9	1.100	0.900	18.66	-0.00	0	0
1006	2	0.00	0.00	0.00	0.00	1	1.0000000	30.139193	13.80	9	1.100	0.900	18.66	-0.00	0	0
1007	2	9.11	1.99	0.00	-0.83	1	1.0300700	45.060270	115.00	9	1.100	0.900	18.66	0.00	0	0
1008	1	0.00	0.00	0.00	0.00	1	0.9899896	31.145722	115.00	9	1.100	0.900	18.66	-0.00	0	0
1009	2	0.00	0.00	0.00	0.00	1	1.0000000	34.514214	13.80	9	1.100	0.900	18.66	-0.00	0	0
1010	1	0.00	0.00	0.00	2.68	1	1.0300000	40.056020	115.00	9	1.100	0.900	18.66	0.00	0	0
1011	2	0.00	0.00	0.00	0.00	1	1.0302178	41.808982	22.00	9	1.100	0.900	18.66	-0.00	0	0
1012	1	3.88	0.85	0.00	9.50	1	0.9544725	15.366317	115.00	9	1.100	0.900	18.66	-0.00	0	0
1013	1	37.99	8.28	0.00	0.00	1	0.9914705	28.489971	115.00	9	1.100	0.900	18.66	-0.00	0	0
1014	1	2.89	0.63	0.00	0.00	1	0.9913344	30.215476	115.00	9	1.100	0.900	18.66	-0.00	0	0
1015	1	9.76	2.13	0.00	0.00	1	1.0304656	41.323641	115.00	9	1.100	0.900	18.66	0.00	0	0
1016	2	3.76	0.82	0.00	30.00	1	1.0000000	35.044920	115.00	9	1.100	0.900	18.66	0.00	0	0
1017	1	23.85	5.20	0.00	0.00	1	0.9767640	18.415323	115.00	9	1.100	0.900	18.66	-0.00	0	0
1018	1	0.09	0.02	0.00	0.00	1	0.9875095	19.826156	115.00	9	1.100	0.900	18.66	-0.00	0	0
1019	1	80.31	17.50	0.00	142.98	1	0.9810516	15.089130	115.00	9	1.100	0.900	18.66	0.00	0	0
1020	1	0.00	0.00	0.00	76.73	1	0.9912092	23.859877	115.00	9	1.100	0.900	18.66	-0.00	0	0
1021	2	0.00	0.00	0.00	0.00	1	1.0000000	27.220706	13.80	9	1.100	0.900	18.66	-0.00	0	0
1022	2	0.00	0.00	0.00	0.00	1	0.9991548	29.758880	115.00	9	1.100	0.900	18.66	-0.00	0	0
1023	2	0.00	0.00	0.00	0.00	1	1.0100000	38.237460	13.80	9	1.100	0.900	18.66	0.00	0	0
1024	1	81.95	17.86	0.00	0.00	1	0.9913539	21.003575	115.00	9	1.100	0.900	18.66	-0.00	0	0
1025	1	0.00	0.00	0.00	0.00	1	0.9927846	25.440787	115.00	9	1.100	0.900	18.66	-0.00	0	0
1026	2	0.00	0.00	0.00	0.00	1	1.0000000	35.165143	13.80	9	1.100	0.900	18.66	0.00	0	0
1027	2	131.57	28.68	0.00	75.00	1	0.9916812	18.033312	115.00	9	1.100	0.900	18.66	0.00	0	0
1028	2	13.02	2.84	0.00	0.00	1	1.0000000	25.484999	115.00	9	1.100	0.900	18.66	-0.00	0	0
1029	2	108.14	23.57	0.00	40.00	1	1.0000000	19.024717	115.00	9	1.100	0.900	18.66	0.00	0	0
1030	2	32.02	6.98	0.00	0.00	1	1.0079039	36.675807	115.00	9	1.100	0.900	18.66	-0.00	0	0
1031	1	12.02	2.62	0.00	0.00	1	1.0026709	36.525938	115.00	9	1.100	0.900	18.66	-0.00	0	0
1032	2	0.00	0.00	0.00	0.00	1	0.9689826	29.324284	115.00	9	1.100	0.900	18.66	-0.00	0	0
1033	2	0.00	0.00	0.00	50.00	1	0.9726584	25.720778	230.00	9	1.100	0.900	18.66	-0.00	0	0
1034	1	0.00	0.00	0.00	0.00	1	0.9990413	31.647355	115.00	9	1.100	0.900	18.66	-0.00	0	0
1035	2	0.00	0.00	0.00	0.00	1	1.0000000	34.939151	13.80	9	1.100	0.900	18.66	0.00	0	0
1036	2	17.67	3.85	0.00	0.00	1	0.9825988	33.529035	115.00	9	1.100	0.900	18.66	-0.00	0	0
1037	2	132.91	28.97	0.00	0.00	1	0.9721616	16.363223	115.00	9	1.100	0.900	18.66	-0.00	0	0
1038	1	0.00	0.00	0.00	0.00	1	0.9940211	34.315071	115.00	9	1.100	0.900	18.66	-0.00	0	0
1039	2	0.00	0.00	0.00	0.00	1	1.0000000	39.790493	22.00	9	1.100	0.900	18.66	0.00	0	0
1040	2	57.67	12.57	0.00	0.00	1	1.0000000	23.719633	115.00	9	1.100	0.900	18.66	-0.00	0	0
1041	1	0.00	0.00	0.00	0.00	1	1.0011682	30.701619	115.00	9	1.100	0.900	18.66	-0.00	0	0
1042	2	0.00	0.00	0.00	0.00	1	1.0011682	30.701619	13.80	9	1.100	0.900	18.66	-0.00	0	0
1043	2	0.00	0.00	0.00	0.00	1	1.0000000	33.946100	13.80	9	1.100	0.900	18.66	0.00	0	0
1044	2	19.09	4.16	0.00	0.00	1	1.0000000	14.102308	115.00	9	1.100	0.900	18.66	-0.00	0	0
1045	1	128.13	27.93	0.00	0.00	1	0.9647280	13.590683	115.00	9	1.100	0.900	18.66	-0.00	0	0
1046	2	14.41	3.14	0.00	12.00	1	1.0000000	25.817813	115.00	9	1.100	0.900	18.66	-0.00	0	0
1047	1	0.00	0.00	0.00	0.00	1	0.9909305	24.573632	115.00	9	1.100	0.900	18.66	-0.00	0	0
1048	2	0.00	0.00	0.00	0.00	1	0.9909305	24.573632	18.00	9	1.100	0.900	18.66	-0.00	0	0
1049	2	0.00	0.00	0.00	0.00	1	0.9909305	24.573632	18.00	9	1.100	0.900	18.66	-0.00	0	0
1050	2	0.00	0.00	0.00	0.00	1	1.0000000	25.404002	18.00	9	1.100	0.900	18.66	0.00	0	0
1051	2	0.00	0.00	0.00	0.00	1	1.0000000	26.015827	18.00	9	1.100	0.900	18.66	0.00	0	0
1052	2	0.00	0.00	0.00	0.00	1	1.0000000	25.254612	18.00	9	1.100	0.900	18.66	-0.00	0	0
1053	2	0.00	0.00	0.00	0.00	1	0.9841024	22.271393	230.00	9	1.100	0.900	18.66	-0.00	0	0
1054	1	19.48	4.25	0.00	0.00	1	0.9953121	24.646785	115.00	9	1.100	0.900	18.66	-0.00	0	0
1055	2	5.17	1.13	0.00	0.00	1	1.0000000	29.405607	115.00	9	1.100	0.900	18.66	-0.00	0	0
1056	1	0.00	0.00	0.00	80.00	1	1.0122126	22.728187	115.00	9	1.100	0.900	18.66	0.00	0	0
1057	2	0.00	0.00	0.00	0.00	1	1.0122126	22.728187	18.00	9	1.100	0.900	18.66	0.00	0	0
1058	1	17.49	3.81	0.00	0.00	1	0.9927840	28.863602	115.00	9	1.100	0.900	18.66	-0.00	0	0
1059	2	0.00	0.00	0.00	0.00	1	0.9927840	28.863602	22.00	9	1.100	0.900	18.66	-0.00	0	0
1060	2	0.00	0.00	0.00	0.00	1	0.9927840	28.863602	22.00	9	1.100	0.900	18.66	-0.00	0	0
1061	2	0.00	0.00	0.00	0.00	1	1.0000000	27.835550	115.00	9	1.100	0.900	18.66	-0.00	0	0
1062	2	0.00	0.00	0.00	0.00	1	1.0100000	30.177396	13.80	9	1.100	0.900	18.66	-0.00	0	0
1063	2	0.00	0.00	0.00	0.00	1	1.0100000	30.910665	13.80	9	1.100	0.900	18.66	-0.00	0	0
1064	1	160.89	35.07	0.00	0.00	1	0.9592341	11.633721	115.00	9	1.100	0.900	18.66	-0.00	0	0
1065	1	0.00	0.00	0.00	0.00	1	1.0025286	30.700140	115.00	9	1.100	0.900	18.66	-0.00	0	0
1066	2	0.00	0.00	0.00	0.00	1	1.0000000	38.242623	13.80	9	1.100	0.900	18.66	0.00	0	0
1067	1	132.01	28.77	0.00	0.00	1	0.9988939	30.264908	115.00	9	1.100	0.900	18.66	-0.00	0	0
1068	1	77.22	16.83	0.00	0.00	1	0.9731846	31.319060	115.00	9	1.100	0.900	18.66	-0.00	0	0
1069	1	0.00	0.00	0.00	0.00	1	0.9971195	31.714466	115.00	9	1.100	0.900	18.66	-0.00	0	0
1070	2	0.00	0.00	0.00	0.00	1	1.0207280	36.406250	13.80	9	1.100	0.900	18.66	0.00	0	0
1071	1	118.90	25.91	0.00	0.00	1	0.9759924	13.275124	115.00	9	1.100	0.900	18.66	0.00	0	0
1072	2	0.00	0.00	0.00	0.00	1	1.0100000	14.729191	18.00	9	1.100	0.900	18.66	0.00	0	0
1073	2	0.00	0.00	0.00	0.00	1	1.0100000	15.828630	18.00	9	1.100	0.900	18.66	0.00	0	0
1074	2	0.00	0.00	0.00	0.00	1	1.0100000	15.476538	18.00	9	1.100	0.900	18.66	0.00	0	0
1075	2	0.00	0.00	0.00	0.00	1	1.0100000	15.035188	18.00	9	1.100	0.900	18.66	0.00	0	0
1076	2	0.00	0.00	0.00	0.00	1	0.9759924	13.275124	18.00	9	1.100	0.900	18.66	0.00	0	0
1077	2	0.00	0.00	0.00	0.00	1	0.9759924	13.275124	18.00	9	1.100	0.900	18.66	0.00	0	0
1078	2	0.00	0.00	0.00	0.00	1	1.0000000	15.401826	18.00	9	1.100	0.900	18.66	0.00	0	0
1079	2	0.00	0.00	0.00	0.00	1	0.9893964	-2.392023	500.00	9	1.100	0.900	18.66	0.00	0	0
1080	2	0.00	0.00	0.00	0.00	1	1.0100000	15.008439	18.00	9	1.100	0.900	18.66	0.00	0	0
1081	2	0.00	0.00	0.00	140.00	1	0.9774670	20.701641	230.00	9	1.100	0.900	18.66	0.00	0	0
1082	2	0.00	0.00	0.00	0.00	1	1.0000000	34.573661	115.00	9	1.100	0.900	18.66	-0.00	0	0
1083	2	51.93	11.32	0.00	26.15	1	1.0000000	37.320727	115.00	9	1.100	0.900	18.66	-0.00	0	0
1084	2	0.00	0.00	0.00	0.00	1	0.9965706	22.160064	115.00	9	1.100	0.900	18.66	-0.00	0	0
1085	2	27.69	6.03	0.00	0.00	1	1.0000000	27.845178	115.00	9	1.100	0.900	18.66	-0.00	0	0
1086	2	51.57	11.24	0.00	30.00	1	1.0125629	27.461066	115.00	9	1.100	0.900	18.66	0.00	0	0
1087	1	1.18	0.26	0.00	50.00	1	0.9928836	23.324035	115.00	9	1.100	0.900	18.66	0.00	0	0
1088	2	0.00	0.00	0.00	0.00	1	0.9973425	34.792610	115.00	9	1.100	0.900	18.66	0.00	0	0
1089	2	52.79	11.50	0.00	0.00	1	1.0000000	31.782815	115.00	9	1.100	0.900	18.66	-0.00	0	0
1090	2	0.00	0.00	0.00	0.00	1	1.0041357	23.062211	115.00	9	1.100	0.900	18.66	0.00	0	0
1091	1	15.11	3.29	0.00	0.00	1	0.9744891	27.192198	161.00	9	1.100	0.900	18.66	-0.00	0	0
2001	1	62.86	13.70	0.00	0.00	2	1.0219064	-30.898785	161.00	11	1.100	0.900	18.66	-0.00	0	0
2002	1	0.00	0.00	0.00	0.00	2	1.0287164	-29.116277	500.00	11	1.100	0.900	18.66	-0.00	0	0
2003	1	0.00	0.00	0.00	0.00	2	1.0265400	-30.819553	161.00	11	1.100	0.900	18.66	-0.00	0	0
2004	2	0.00	0.00	0.00	0.00	2	1.0287164	-29.116277	13.80	11	1.100	0.900	18.66	-0.00	0	0
2005	2	0.00	0.00	0.00	0.00	2	1.0287164	-29.116277	13.80	11	1.100	0.900	18.66	-0.00	0	0
2006	2	0.00	0.00	0.00	0.00	2	1.0287164	-29.116277	13.80	11	1.100	0.900	18.66	-0.00	0	0
2007	1	12.40	2.70	0.00	0.00	2	1.0245840	-30.007988	161.00	11	1.100	0.900	18.66	-0.00	0	0
2008	2	10.48	2.28	0.00	0.00	2	1.0034251	36.209631	161.00	10	1.100	0.900	18.66	-0.00	0	0
2009	1	50.88	11.09	0.00	120.00	2	0.9917392	2.647576	161.00	11	1.100	0.900	18.66	0.00	0	0
2010	2	73.85	16.09	0.00	100.00	2	1.0000000	25.455171	161.00	10	1.100	0.900	18.66	0.00	0	0
2011	2	0.00	0.00	0.00	0.00	2	1.0158280	21.816990	500.00	10	1.100	0.900	18.66	-0.00	0	0
2012	2	0.00	0.00	0.00	0.00	2	0.9940206	28.662956	161.00	10	1.100	0.900	18.66	-0.00	0	0
2013	2	0.00	0.00	0.00	0.00	2	1.0049816	24.413074	18.00	10	1.100	0.900	18.66	-0.00	0	0
2014	1	33.06	7.20	0.00	0.00	2	0.9966655	35.952402	161.00	10	1.100	0.900	18.66	-0.00	0	0
2015	1	6.09	1.33	0.00	0.00	2	0.9976934	-20.174222	161.00	11	1.100	0.900	18.66	-0.00	0	0
2016	2	90.05	19.63	0.00	0.00	2	1.0159457	-35.864512	161.00	11	1.100	0.900	18.66	0.00	0	0
2017	1	0.00	0.00	0.00	-34.27	2	1.0295743	16.755531	500.00	10	1.100	0.900	18.66	-0.00	0	0
2018	1	0.00	0.00	0.00	0.00	2	1.0044569	20.684444	161.00	10	1.100	0.900	18.66	-0.00	0	0
2019	2	0.00	0.00	0.00	0.00	2	1.0295743	16.755531	20.00	10	1.100	0.900	18.66	-0.00	0	0
2020	1	62.36	13.59	0.00	0.00	2	0.9734468	-3.377223	161.00	11	1.100	0.900	18.66	-0.00	0	0
2021	1	0.00	0.00	0.00	0.00	2	1.0344194	-27.981431	500.00	11	1.100	0.900	18.66	-0.00	0	0
2022	1	15.03	3.28	0.00	0.00	2	1.0305857	-29.521092	161.00	11	1.100	0.900	18.66	-0.00	0	0
2023	2	0.00	0.00	0.00	0.00	2	1.0344194	-27.981431	13.80	11	1.100	0.900	18.66	0.00	0	0
2024	2	0.00	0.00	0.00	0.00	2	1.0301748	-27.262126	13.80	11	1.100	0.900	18.66	0.00	0	0
2025	1	51.50	11.23	0.00	0.00	2	0.9707165	-3.491361	161.00	11	1.100	0.900	18.66	-0.00	0	0
2026	1	24.14	5.26	0.00	0.00	2	0.9954618	23.136820	161.00	10	1.100	0.900	18.66	-0.00	0	0
2027	1	4.62	1.01	0.00	0.00	2	1.0230172	-31.084191	161.00	11	1.100	0.900	18.66	-0.00	0	0
2028	1	18.51	4.03	0.00	0.00	2	0.9821652	-3.812169	161.00	11	1.100	0.900	18.66	-0.00	0	0
2029	2	4.16	0.91	0.00	0.00	2	1.0000000	37.220331	161.00	10	1.100	0.900	18.66	-0.00	0	0
2030	1	61.29	13.36	0.00	0.00	2	1.0102955	-32.392530	161.00	11	1.100	0.900	18.66	-0.00	0	0
2031	1	7.50	1.63	0.00	0.00	2	1.0002274	26.689581	161.00	10	1.100	0.900	18.66	-0.00	0	0
2032	1	4.36	0.95	0.00	0.00	2	1.0267656	-29.589665	161.00	11	1.100	0.900	18.66	-0.00	0	0
2033	1	17.64	3.85	0.00	0.00	2	1.0132726	-32.333596	161.00	11	1.100	0.900	18.66	-0.00	0	0
2034	1	6.94	1.51	0.00	0.00	2	1.0157711	-35.876788	161.00	11	1.100	0.900	18.66	-0.00	0	0
2035	2	6.09	1.33	0.00	0.00	2	1.0000000	32.800443	161.00	10	1.100	0.900	18.66	-0.00	0	0
2036	1	54.06	11.78	0.00	0.00	2	0.9765009	-1.446056	161.00	11	1.100	0.900	18.66	-0.00	0	0
2037	1	4.55	0.99	0.00	0.00	2	1.0058099	-20.165161	161.00	11	1.100	0.900	18.66	-0.00	0	0
2038	1	3.39	0.74	0.00	0.00	2	1.0261796	-30.604960	161.00	11	1.100	0.900	18.66	-0.00	0	0
2039	1	7.23	1.58	0.00	0.00	2	0.9879651	-18.822080	161.00	11	1.100	0.900	18.66	-0.00	0	0
2040	1	20.67	4.51	0.00	0.00	2	1.0284893	-30.115264	161.00	11	1.100	0.900	18.66	-0.00	0	0
2041	2	0.00	0.00	0.00	0.00	2	1.0000000	33.146388	161.00	10	1.100	0.900	18.66	-0.00	0	0
2042	2	0.00	0.00	0.00	0.00	2	1.0100000	36.098256	18.00	10	1.100	0.900	18.66	-0.00	0	0
2043	1	5.51	1.20	0.00	0.00	2	1.0156977	-35.904864	161.00	11	1.100	0.900	18.66	-0.00	0	0
2044	1	35.63	7.76	0.00	0.00	2	1.0037621	-25.769974	161.00	11	1.100	0.900	18.66	-0.00	0	0
2045	1	29.39	6.40	0.00	0.00	2	0.9747316	-3.542033	161.00	11	1.100	0.900	18.66	-0.00	0	0
2046	1	28.77	6.27	0.00	0.00	2	1.0162725	-35.771387	161.00	11	1.100	0.900	18.66	-0.00	0	0
2047	1	19.44	4.24	0.00	0.00	2	1.0242166	-31.769530	161.00	11	1.100	0.900	18.66	-0.00	0	0
2048	2	8.34	1.82	0.00	0.00	2	1.0000000	29.029311	161.00	10	1.100	0.900	18.66	-0.00	0	0
2049	2	15.04	3.28	0.00	0.00	2	1.0000000	11.321173	161.00	10	1.100	0.900	18.66	-0.00	0	0
2050	1	4.75	1.04	0.00	0.00	2	1.0177255	-32.097191	161.00	11	1.100	0.900	18.66	-0.00	0	0
2051	2	23.20	5.06	0.00	0.00	2	1.0000000	-10.422934	161.00	11	1.100	0.900	18.66	-0.00	0	0
2052	1	32.29	7.04	0.00	0.00	2	0.9921253	31.799656	161.00	10	1.100	0.900	18.66	-0.00	0	0
2053	1	37.87	8.25	0.00	0.00	2	0.9897896	-21.057977	161.00	11	1.100	0.900	18.66	-0.00	0	0
2054	1	0.00	0.00	0.00	0.00	2	0.9752745	-3.416697	500.00	11	1.100	0.900	18.66	-0.00	0	0
2055	1	64.51	14.06	0.00	0.00	2	0.9732746	-2.886197	161.00	11	1.100	0.900	18.66	-0.00	0	0
2056	2	0.00	0.00	0.00	0.00	2	0.9752745	-3.416697	18.00	11	1.100	0.900	18.66	-0.00	0	0
2057	2	0.00	0.00	0.00	0.00	2	0.9900000	-1.573756	18.00	11	1.100	0.900	18.66	-0.00	0	0
2058	1	0.00	0.00	0.00	0.00	2	0.9997473	31.927869	161.00	10	1.100	0.900	18.66	-0.00	0	0
2059	2	0.00	0.00	0.00	0.00	2	1.0000000	35.401297	13.80	10	1.100	0.900	18.66	-0.00	0	0
2060	1	4.93	1.08	0.00	0.00	2	1.0204660	-31.223036	161.00	11	1.100	0.900	18.66	-0.00	0	0
2061	1	0.00	0.00	0.00	0.00	2	0.9993441	16.950701	161.00	10	1.100	0.900	18.66	-0.00	0	0
2062	2	0.00	0.00	0.00	0.00	2	1.0118147	19.286157	18.00	10	1.100	0.900	18.66	0.00	0	0
2063	1	85.30	18.59	0.00	40.00	2	1.0187807	-35.346862	161.00	11	1.100	0.900	18.66	-0.00	0	0
2064	1	13.06	2.85	0.00	0.00	2	1.0251318	-30.433529	161.00	11	1.100	0.900	18.66	-0.00	0	0
2065	2	101.87	22.20	0.00	100.00	2	1.0017771	-22.116287	161.00	11	1.100	0.900	18.66	0.00	0	0
2066	1	9.25	2.02	0.00	0.00	2	0.9827363	25.106047	161.00	10	1.100	0.900	18.66	-0.00	0	0
2067	1	70.16	15.29	0.00	0.00	2	0.9705161	-3.909705	161.00	11	1.100	0.900	18.66	-0.00	0	0
2068	1	7.49	1.63	0.00	0.00	2	0.9868056	-3.238815	161.00	11	1.100	0.900	18.66	-0.00	0	0
2069	1	28.50	6.21	0.00	92.64	2	1.0300000	-34.249771	161.00	11	1.100	0.900	18.66	0.00	0	0
2070	1	0.00	0.00	0.00	0.00	2	0.9910741	-3.298022	161.00	11	1.100	0.900	18.66	-0.00	0	0
2071	2	0.00	0.00	0.00	0.00	2	1.0000000	0.404471	18.00	11	1.100	0.900	18.66	0.00	0	0
2072	1	12.62	2.75	0.00	0.00	2	1.0248730	-32.569053	161.00	11	1.100	0.900	18.66	0.00	0	0
2073	1	0.00	0.00	0.00	0.00	2	0.9803436	19.260569	161.00	10	1.100	0.900	18.66	-0.00	0	0
2074	1	0.00	0.00	0.00	0.00	2	0.9895277	21.689454	115.00	10	1.100	0.900	18.66	-0.00	0	0
2075	1	0.00	0.00	0.00	0.00	2	0.9895277	21.689454	115.00	10	1.100	0.900	18.66	-0.00	0	0
2076	2	0.00	0.00	0.00	0.00	2	0.9857840	20.233138	24.00	10	1.100	0.900	18.66	-0.00	0	0
2077	1	0.00	0.00	0.00	0.00	2	1.0130905	-17.486609	161.00	11	1.100	0.900	18.66	-0.00	0	0
2078	2	0.00	0.00	0.00	0.00	2	1.0200000	-14.155734	13.80	11	1.100	0.900	18.66	0.00	0	0
2079	1	5.82	1.27	0.00	0.00	2	1.0008843	26.721898	161.00	10	1.100	0.900	18.66	-0.00	0	0
2080	1	22.01	4.80	0.00	0.00	2	0.9985528	-12.890424	161.00	11	1.100	0.900	18.66	-0.00	0	0
2081	2	5.80	1.26	0.00	0.00	2	1.0254925	-30.143645	161.00	11	1.100	0.900	18.66	-0.00	0	0
2082	1	76.74	16.73	0.00	0.00	2	0.9800724	-0.303390	161.00	11	1.100	0.900	18.66	-0.00	0	0
2083	2	0.00	0.00	0.00	0.00	2	0.9949366	0.226450	20.00	11	1.100	0.900	18.66	0.00	0	0
2084	2	0.00	0.00	0.00	0.00	2	0.9800724	-0.303390	20.00	11	1.100	0.900	18.66	-0.00	0	0
2085	2	0.00	0.00	0.00	0.00	2	0.9800724	-0.303390	20.00	11	1.100	0.900	18.66	-0.00	0	0
2086	1	2.85	0.62	0.00	0.00	2	0.9910125	-16.553795	161.00	11	1.100	0.900	18.66	-0.00	0	0
2087	2	10.26	2.24	0.00	0.00	2	1.0000000	25.072547	161.00	10	1.100	0.900	18.66	-0.00	0	0
2088	1	0.00	0.00	0.00	0.00	2	0.9891330	-3.114611	161.00	11	1.100	0.900	18.66	-0.00	0	0
2089	2	0.00	0.00	0.00	0.00	2	1.0000000	0.514912	24.00	11	1.100	0.900	18.66	0.00	0	0
2090	1	3.15	0.69	0.00	0.00	2	1.0245120	-31.216442	161.00	11	1.100	0.900	18.66	-0.00	0	0
2091	2	22.16	4.83	0.00	0.00	2	1.0000000	30.549848	161.00	10	1.100	0.900	18.66	-0.00	0	0
2092	1	31.34	6.83	0.00	0.00	2	1.0198737	-33.669852	161.00	11	1.100	0.900	18.66	-0.00	0	0
2093	2	0.00	0.00	0.00	0.00	2	0.9992849	25.101684	161.00	10	1.100	0.900	18.66	-0.00	0	0
2094	2	0.00	0.00	0.00	0.00	2	1.0000000	25.756448	13.80	10	1.100	0.900	18.66	-0.00	0	0
2095	2	0.00	0.00	0.00	0.00	2	1.0000000	25.424112	13.80	10	1.100	0.900	18.66	-0.00	0	0
2096	1	0.00	0.00	0.00	0.00	2	1.0068636	15.111006	500.00	10	1.100	0.900	18.66	-0.00	0	0
2097	1	0.00	0.00	0.00	0.00	2	0.9996284	16.697770	230.00	10	1.100	0.900	18.66	-0.00	0	0
2098	1	0.00	0.00	0.00	0.00	2	0.9715372	25.706310	161.00	10	1.100	0.900	18.66	-0.00	0	0
2099	2	0.00	0.00	0.00	0.00	2	1.0076176	15.257918	18.00	10	1.100	0.900	18.66	-0.00	0	0
2100	2	0.00	0.00	0.00	0.00	2	1.0198845	17.756894	18.00	10	1.100	0.900	18.66	-0.00	0	0
2101	1	0.00	0.00	0.00	0.00	2	1.0259048	-29.151429	500.00	11	1.100	0.900	18.66	-0.00	0	0
2102	1	0.00	0.00	0.00	0.00	2	1.0204412	-29.673069	161.00	11	1.100	0.900	18.66	-0.00	0	0
2103	2	0.00	0.00	0.00	0.00	2	1.0259048	-29.151429	20.00	11	1.100	0.900	18.66	-0.00	0	0
2104	2	0.00	0.00	0.00	0.00	2	1.0259048	-29.151429	20.00	11	1.100	0.900	18.66	-0.00	0	0
2105	2	0.00	0.00	0.00	0.00	2	1.0259048	-29.151429	20.00	11	1.100	0.900	18.66	-0.00	0	0
2106	1	18.72	4.08	0.00	0.00	2	1.0108708	-32.597823	161.00	11	1.100	0.900	18.66	-0.00	0	0
2107	1	96.40	21.01	0.00	0.00	2	1.0151748	-30.260691	161.00	11	1.100	0.900	18.66	-0.00	0	0
2108	1	2.79	0.61	0.00	0.00	2	0.9977033	11.735911	161.00	10	1.100	0.900	18.66	0.00	0	0
2109	2	43.95	9.58	0.00	0.00	2	1.0000000	0.423110	161.00	11	1.100	0.900	18.66	-0.00	0	0
...
];

%% generator data 
mpc.gen = [
1004	158.25	44.94	44.94	-30.38	1.0100	253.20	1	158.25	158.25	0.00	0.00	0.00	0.00	0.00	0.00	0	0	0	0	211.0000	0	0	0	0
1006	25.73	4.77	7.31	-4.94	1.0000	41.16	1	25.73	25.73	0.00	0.00	0.00	0.00	0.00	0.00	0	0	0	0	34.3000	0	0	0	0
1007	216.59	0.00	0.00	0.00	1.0000	601.65	1	216.59	216.59	0.00	0.00	0.00	0.00	0.00	0.00	0	0	0	0	0.0000	0	0	0	0
1009	61.87	9.40	17.57	-11.88	1.0000	99.00	1	61.87	61.87	0.00	0.00	0.00	0.00	0.00	0.00	0	0	0	0	82.5000	0	0	0	0
1011	10.00	0.00	0.00	0.00	1.0000	12.00	1	10.00	10.00	0.00	0.00	0.00	0.00	0.00	0.00	0	0	0	0	10.0000	0	0	0	0
1016	439.47	-35.13	381.18	-381.18	1.0000	1220.75	1	439.47	439.47	0.00	0.00	0.00	0.00	0.00	0.00	0	0	0	0	0.0000	0	0	0	0
1016	125.00	-35.13	117.09	-117.09	1.0000	375.00	1	125.00	125.00	0.00	0.00	0.00	0.00	0.00	0.00	0	0	0	0	0.0000	0	0	0	0
1016	10.00	-20.00	20.00	-20.00	1.0000	100.00	1	10.00	10.00	0.00	0.00	0.00	0.00	0.00	0.00	0	0	0	0	10.0000	0	0	0	0
1021	149.63	20.61	42.49	-28.73	1.0000	239.40	1	149.63	149.63	0.00	0.00	0.00	0.00	0.00	0.00	0	0	0	0	199.5000	0	0	0	0
1022	119.79	0.00	0.00	0.00	1.0000	332.75	1	119.79	119.79	0.00	0.00	0.00	0.00	0.00	0.00	0	0	0	0	0.0000	0	0	0	0
1023	135.00	12.93	38.34	-25.92	1.0100	216.00	1	135.00	135.00	0.00	0.00	0.00	0.00	0.00	0.00	0	0	0	0	180.0000	0	0	0	0
1023	109.79	0.00	0.00	0.00	1.0100	332.75	1	109.79	109.79	0.00	0.00	0.00	0.00	0.00	0.00	0	0	0	0	0.0000	0	0	0	0
1023	10.00	12.93	20.00	-20.00	1.0100	100.00	1	10.00	10.00	0.00	0.00	0.00	0.00	0.00	0.00	0	0	0	0	10.0000	0	0	0	0
1026	93.15	9.73	26.45	-17.88	1.0000	149.04	1	93.15	93.15	0.00	0.00	0.00	0.00	0.00	0.00	0	0	0	0	124.2000	0	0	0	0
1027	1.62	1.41	1.41	-1.41	1.0000	4.50	1	1.62	1.62	0.00	0.00	0.00	0.00	0.00	0.00	0	0	0	0	0.0000	0	0	0	0
1028	253.75	22.55	220.10	-220.10	1.0000	704.88	1	253.75	253.75	0.00	0.00	0.00	0.00	0.00	0.00	0	0	0	0	0.0000	0	0	0	0
1029	63.13	-3.27	54.76	-54.76	1.0000	175.38	1	63.13	63.13	0.00	0.00	0.00	0.00	0.00	0.00	0	0	0	0	0.0000	0	0	0	0
1030	22.50	0.00	0.00	0.00	1.0000	62.50	1	22.50	22.50	0.00	0.00	0.00	0.00	0.00	0.00	0	0	0	0	0.0000	0	0	0	0
1032	209.14	0.00	0.00	0.00	1.0000	580.94	1	209.14	209.14	0.00	0.00	0.00	0.00	0.00	0.00	0	0	0	0	0.0000	0	0	0	0
1033	208.50	59.21	59.21	-40.03	1.0000	333.60	1	208.50	208.50	0.00	0.00	0.00	0.00	0.00	0.00	0	0	0	0	278.0000	0	0	0	0
1033	209.14	0.00	0.00	0.00	1.0000	580.94	1	209.14	209.14	0.00	0.00	0.00	0.00	0.00	0.00	0	0	0	0	0.0000	0	0	0	0
1035	67.50	-0.41	19.17	-12.96	1.0000	108.00	1	67.50	67.50	0.00	0.00	0.00	0.00	0.00	0.00	0	0	0	0	90.0000	0	0	0	0
1036	117.90	0.00	0.00	0.00	1.0000	327.50	1	117.90	117.90	0.00	0.00	0.00	0.00	0.00	0.00	0	0	0	0	0.0000	0	0	0	0
1037	81.00	0.00	0.00	0.00	1.0000	225.00	1	81.00	81.00	0.00	0.00	0.00	0.00	0.00	0.00	0	0	0	0	0.0000	0	0	0	0
1039	110.63	9.65	31.42	-21.24	1.0000	177.00	1	110.63	110.63	0.00	0.00	0.00	0.00	0.00	0.00	0	0	0	0	147.5000	0	0	0	0
1040	72.32	-22.82	62.72	-62.72	1.0000	200.88	1	72.32	72.32	0.00	0.00	0.00	0.00	0.00	0.00	0	0	0	0	0.0000	0	0	0	0
1040	487.76	0.00	0.00	0.00	1.0000	1354.88	1	487.76	487.76	0.00	0.00	0.00	0.00	0.00	0.00	0	0	0	0	0.0000	0	0	0	0
1042	0.00	0.00	25.96	-17.55	1.0000	146.28	0	121.90	36.57	0.00	0.00	0.00	0.00	0.00	0.00	0	0	0	0	121.9000	0	0	0	0
1043	44.10	-0.69	12.52	-8.47	1.0000	70.56	1	44.10	44.10	0.00	0.00	0.00	0.00	0.00	0.00	0	0	0	0	58.8000	0	0	0	0
1044	136.08	72.45	118.03	-118.03	1.0000	378.00	1	136.08	136.08	0.00	0.00	0.00	0.00	0.00	0.00	0	0	0	0	0.0000	0	0	0	0
1046	686.02	42.74	595.03	-595.03	1.0000	1905.63	1	686.02	686.02	0.00	0.00	0.00	0.00	0.00	0.00	0	0	0	0	0.0000	0	0	0	0
1048	0.00	0.00	165.53	-36.10	1.0000	390.24	0	325.20	97.56	0.00	0.00	0.00	0.00	0.00	0.00	0	0	0	0	325.2000	0	0	0	0
1049	0.00	0.00	165.53	-36.10	1.0000	390.24	0	325.20	97.56	0.00	0.00	0.00	0.00	0.00	0.00	0	0	0	0	325.2000	0	0	0	0
1050	29.44	17.53	45.50	-9.92	1.0000	107.28	1	89.40	26.82	0.00	0.00	0.00	0.00	0.00	0.00	0	0	0	0	89.4000	0	0	0	0
1051	29.44	6.45	45.50	-9.92	1.0000	107.28	1	89.40	26.82	0.00	0.00	0.00	0.00	0.00	0.00	0	0	0	0	89.4000	0	0	0	0
1051	10.00	6.45	20.00	-20.00	1.0000	100.00	1	10.00	10.00	0.00	0.00	0.00	0.00	0.00	0.00	0	0	0	0	10.0000	0	0	0	0
1052	29.44	20.82	45.50	-9.92	1.0000	107.28	1	89.40	26.82	0.00	0.00	0.00	0.00	0.00	0.00	0	0	0	0	89.4000	0	0	0	0
1053	0.00	0.00	91.01	-19.85	1.0000	214.56	0	178.80	53.64	0.00	0.00	0.00	0.00	0.00	0.00	0	0	0	0	178.8000	0	0	0	0
1055	111.33	29.45	96.56	-96.56	1.0000	309.25	1	111.33	111.33	0.00	0.00	0.00	0.00	0.00	0.00	0	0	0	0	0.0000	0	0	0	0
1057	0.00	0.00	25.56	-17.28	1.0000	144.00	0	120.00	36.00	0.00	0.00	0.00	0.00	0.00	0.00	0	0	0	0	120.0000	0	0	0	0
1059	0.00	0.00	2.85	-0.62	1.0400	6.72	0	5.60	1.68	0.00	0.00	0.00	0.00	0.00	0.00	0	0	0	0	5.6000	0	0	0	0
1060	0.00	0.00	1.02	-0.22	1.0400	2.40	0	2.00	0.60	0.00	0.00	0.00	0.00	0.00	0.00	0	0	0	0	2.0000	0	0	0	0
1061	52.50	4.46	45.54	-45.54	1.0000	145.83	1	52.50	52.50	0.00	0.00	0.00	0.00	0.00	0.00	0	0	0	0	0.0000	0	0	0	0
1062	0.00	0.00	0.00	0.00	1.0100	1.80	0	1.50	0.45	0.00	0.00	0.00	0.00	0.00	0.00	0	0	0	0	1.5000	0	0	0	0
1062	52.50	11.08	45.54	-45.54	1.0100	145.83	1	52.50	52.50	0.00	0.00	0.00	0.00	0.00	0.00	0	0	0	0	0.0000	0	0	0	0
1063	0.00	0.00	0.00	0.00	1.0100	276.00	0	230.00	69.00	0.00	0.00	0.00	0.00	0.00	0.00	0	0	0	0	230.0000	0	0	0	0
1063	52.50	8.24	45.54	-45.54	1.0100	145.83	1	52.50	52.50	0.00	0.00	0.00	0.00	0.00	0.00	0	0	0	0	0.0000	0	0	0	0
1066	96.88	0.29	30.35	-20.52	1.0000	171.00	1	96.88	96.88	0.00	0.00	0.00	0.00	0.00	0.00	0	0	0	0	142.5000	0	0	0	0
1066	10.00	0.29	20.00	-20.00	1.0000	100.00	1	10.00	10.00	0.00	0.00	0.00	0.00	0.00	0.00	0	0	0	0	10.0000	0	0	0	0
1070	120.38	34.19	34.19	-23.11	1.0400	192.60	1	120.38	120.38	0.00	0.00	0.00	0.00	0.00	0.00	0	0	0	0	160.5000	0	0	0	0
1072	63.28	77.16	97.80	-21.33	1.0100	230.56	1	192.13	57.64	0.00	0.00	0.00	0.00	0.00	0.00	0	0	0	0	192.1300	0	0	0	0
1073	63.28	47.35	97.80	-21.33	1.0100	230.56	1	192.13	57.64	0.00	0.00	0.00	0.00	0.00	0.00	0	0	0	0	192.1300	0	0	0	0
1074	63.28	53.41	97.80	-21.33	1.0100	230.56	1	192.13	57.64	0.00	0.00	0.00	0.00	0.00	0.00	0	0	0	0	192.1300	0	0	0	0
1075	63.28	67.49	97.80	-21.33	1.0100	230.56	1	192.13	57.64	0.00	0.00	0.00	0.00	0.00	0.00	0	0	0	0	192.1300	0	0	0	0
1076	0.00	0.00	97.80	-21.33	1.0100	230.56	0	192.13	57.64	0.00	0.00	0.00	0.00	0.00	0.00	0	0	0	0	192.1300	0	0	0	0
1077	0.00	0.00	97.80	-21.33	1.0100	230.56	0	192.13	57.64	0.00	0.00	0.00	0.00	0.00	0.00	0	0	0	0	192.1300	0	0	0	0
1078	28.65	12.39	48.61	-10.60	1.0000	114.60	1	28.65	28.65	0.00	0.00	0.00	0.00	0.00	0.00	0	0	0	0	95.5000	0	0	0	0
1078	10.00	12.39	20.00	-20.00	1.0000	100.00	1	10.00	10.00	0.00	0.00	0.00	0.00	0.00	0.00	0	0	0	0	10.0000	0	0	0	0
1079	31.45	48.61	48.61	-10.60	1.0100	114.60	1	95.50	28.65	0.00	0.00	0.00	0.00	0.00	0.00	0	0	0	0	95.5000	0	0	0	0
1080	31.45	32.56	48.61	-10.60	1.0100	114.60	1	95.50	28.65	0.00	0.00	0.00	0.00	0.00	0.00	0	0	0	0	95.5000	0	0	0	0
1081	0.00	0.00	145.83	-31.80	1.0100	343.80	0	286.50	85.95	0.00	0.00	0.00	0.00	0.00	0.00	0	0	0	0	286.5000	0	0	0	0
1082	112.50	-6.30	31.95	-21.60	1.0000	180.00	1	112.50	112.50	0.00	0.00	0.00	0.00	0.00	0.00	0	0	0	0	150.0000	0	0	0	0
1083	86.26	-72.18	74.82	-74.82	1.0000	239.63	1	86.26	86.26	0.00	0.00	0.00	0.00	0.00	0.00	0	0	0	0	0.0000	0	0	0	0
1083	718.04	0.00	0.00	0.00	1.0000	1994.56	1	718.04	718.04	0.00	0.00	0.00	0.00	0.00	0.00	0	0	0	0	0.0000	0	0	0	0
1084	86.62	24.60	24.60	-16.63	1.0400	138.60	1	86.62	86.62	0.00	0.00	0.00	0.00	0.00	0.00	0	0	0	0	115.5000	0	0	0	0
1085	68.67	-11.95	59.56	-59.56	1.0000	190.75	1	68.67	68.67	0.00	0.00	0.00	0.00	0.00	0.00	0	0	0	0	0.0000	0	0	0	0
1085	113.85	0.00	0.00	0.00	1.0000	316.24	1	113.85	113.85	0.00	0.00	0.00	0.00	0.00	0.00	0	0	0	0	0.0000	0	0	0	0
1086	45.00	0.00	0.00	0.00	1.0000	125.00	1	45.00	45.00	0.00	0.00	0.00	0.00	0.00	0.00	0	0	0	0	0.0000	0	0	0	0
1088	56.25	15.97	15.97	-10.80	1.0000	90.00	1	56.25	56.25	0.00	0.00	0.00	0.00	0.00	0.00	0	0	0	0	75.0000	0	0	0	0
1089	95.04	-29.46	82.43	-82.43	1.0000	264.00	1	95.04	95.04	0.00	0.00	0.00	0.00	0.00	0.00	0	0	0	0	0.0000	0	0	0	0
1089	68.22	0.00	0.00	0.00	1.0000	189.50	1	68.22	68.22	0.00	0.00	0.00	0.00	0.00	0.00	0	0	0	0	0.0000	0	0	0	0
1090	88.61	32.48	32.48	-21.96	1.0200	183.00	1	152.50	45.75	0.00	0.00	0.00	0.00	0.00	0.00	0	0	0	0	152.5000	0	0	0	0
1090	20.92	7.67	7.67	-5.18	1.0200	43.20	1	36.00	10.80	0.00	0.00	0.00	0.00	0.00	0.00	0	0	0	0	36.0000	0	0	0	0
2004	0.00	0.00	199.43	-43.49	1.0200	470.16	0	391.80	117.54	0.00	0.00	0.00	0.00	0.00	0.00	0	0	0	0	391.8000	0	0	0	0
2005	0.00	0.00	199.43	-43.49	1.0200	470.16	0	391.80	117.54	0.00	0.00	0.00	0.00	0.00	0.00	0	0	0	0	391.8000	0	0	0	0
2006	0.00	0.00	199.43	-43.49	1.0200	470.16	0	391.80	117.54	0.00	0.00	0.00	0.00	0.00	0.00	0	0	0	0	391.8000	0	0	0	0
2008	108.00	0.00	0.00	0.00	1.0000	300.00	1	108.00	108.00	0.00	0.00	0.00	0.00	0.00	0.00	0	0	0	0	0.0000	0	0	0	0
2010	157.63	-85.46	136.73	-136.73	1.0000	437.88	1	157.63	157.63	0.00	0.00	0.00	0.00	0.00	0.00	0	0	0	0	0.0000	0	0	0	0
2011	8.63	-7.48	7.48	-7.48	1.0000	23.96	1	8.63	8.63	0.00	0.00	0.00	0.00	0.00	0.00	0	0	0	0	0.0000	0	0	0	0
2012	8.63	7.48	7.48	7.48	0.9940	23.96	1	8.63	8.63	0.00	0.00	0.00	0.00	0.00	0.00	0	0	0	0	0.0000	0	0	0	0
2013	150.45	-28.89	42.73	-28.89	1.0000	240.72	1	150.45	150.45	0.00	0.00	0.00	0.00	0.00	0.00	0	0	0	0	200.6000	0	0	0	0
2013	8.63	-7.48	7.48	-7.48	1.0000	23.96	1	8.63	8.63	0.00	0.00	0.00	0.00	0.00	0.00	0	0	0	0	0.0000	0	0	0	0
2016	9.13	0.00	0.00	0.00	1.0000	25.38	1	9.13	9.13	0.00	0.00	0.00	0.00	0.00	0.00	0	0	0	0	0.0000	0	0	0	0
2019	0.00	0.00	46.43	-31.39	1.0400	261.60	0	218.00	65.40	0.00	0.00	0.00	0.00	0.00	0.00	0	0	0	0	218.0000	0	0	0	0
2023	0.00	0.00	42.42	-9.25	1.0200	100.00	0	83.33	25.00	0.00	0.00	0.00	0.00	0.00	0.00	0	0	0	0	83.3300	0	0	0	0
2024	54.89	-18.50	84.83	-18.50	1.0200	200.00	1	166.67	50.00	0.00	0.00	0.00	0.00	0.00	0.00	0	0	0	0	166.6700	0	0	0	0
2029	67.45	-11.78	58.51	-58.51	1.0000	187.38	1	67.45	67.45	0.00	0.00	0.00	0.00	0.00	0.00	0	0	0	0	0.0000	0	0	0	0
2029	432.77	-11.78	375.36	-375.36	1.0000	1202.13	1	432.77	432.77	0.00	0.00	0.00	0.00	0.00	0.00	0	0	0	0	0.0000	0	0	0	0
2029	225.90	0.00	0.00	0.00	1.0000	627.50	1	225.90	225.90	0.00	0.00	0.00	0.00	0.00	0.00	0	0	0	0	0.0000	0	0	0	0
2035	361.98	-2.71	313.97	-313.97	1.0000	1005.50	1	361.98	361.98	0.00	0.00	0.00	0.00	0.00	0.00	0	0	0	0	0.0000	0	0	0	0
2041	94.52	-42.10	81.99	-81.99	1.0000	262.56	1	94.52	94.52	0.00	0.00	0.00	0.00	0.00	0.00	0	0	0	0	0.0000	0	0	0	0
2041	127.15	-42.10	110.28	-110.28	1.0000	353.19	1	127.15	127.15	0.00	0.00	0.00	0.00	0.00	0.00	0	0	0	0	0.0000	0	0	0	0
2041	51.84	-42.10	44.96	-44.96	1.0000	144.00	1	51.84	51.84	0.00	0.00	0.00	0.00	0.00	0.00	0	0	0	0	0.0000	0	0	0	0
2042	59.70	15.93	16.95	-11.46	1.0100	95.52	1	59.70	59.70	0.00	0.00	0.00	0.00	0.00	0.00	0	0	0	0	79.6000	0	0	0	0
2042	94.52	15.93	81.99	-81.99	1.0100	262.56	1	94.52	94.52	0.00	0.00	0.00	0.00	0.00	0.00	0	0	0	0	0.0000	0	0	0	0
2042	127.15	15.93	110.28	-110.28	1.0100	353.19	1	127.15	127.15	0.00	0.00	0.00	0.00	0.00	0.00	0	0	0	0	0.0000	0	0	0	0
2042	51.84	15.93	44.96	-44.96	1.0100	144.00	1	51.84	51.84	0.00	0.00	0.00	0.00	0.00	0.00	0	0	0	0	0.0000	0	0	0	0
2048	111.28	-1.84	96.52	-96.52	1.0000	309.13	1	111.28	111.28	0.00	0.00	0.00	0.00	0.00	0.00	0	0	0	0	0.0000	0	0	0	0
2049	490.46	42.07	425.40	-425.40	1.0000	1362.38	1	490.46	490.46	0.00	0.00	0.00	0.00	0.00	0.00	0	0	0	0	0.0000	0	0	0	0
2051	91.84	35.70	79.66	-79.66	1.0000	255.13	1	91.84	91.84	0.00	0.00	0.00	0.00	0.00	0.00	0	0	0	0	0.0000	0	0	0	0
2056	0.00	0.00	2.80	-0.73	0.9900	7.20	0	6.00	1.80	0.00	0.00	0.00	0.00	0.00	0.00	0	0	0	0	6.0000	0	0	0	0
2057	237.13	109.65	335.52	-87.84	0.9900	864.00	1	720.00	216.00	0.00	0.00	0.00	0.00	0.00	0.00	0	0	0	0	720.0000	0	0	0	0
2059	60.00	-1.12	17.04	-11.52	1.0000	96.00	1	60.00	60.00	0.00	0.00	0.00	0.00	0.00	0.00	0	0	0	0	80.0000	0	0	0	0
2062	101.55	28.84	28.84	-19.50	1.0200	162.48	1	101.55	101.55	0.00	0.00	0.00	0.00	0.00	0.00	0	0	0	0	135.4000	0	0	0	0
2065	141.61	-122.83	122.83	-122.83	1.0000	393.38	1	141.61	141.61	0.00	0.00	0.00	0.00	0.00	0.00	0	0	0	0	0.0000	0	0	0	0
2065	29.25	0.00	0.00	0.00	1.0000	81.25	1	29.25	29.25	0.00	0.00	0.00	0.00	0.00	0.00	0	0	0	0	0.0000	0	0	0	0
2071	112.50	16.72	31.95	-21.60	1.0000	180.00	1	112.50	112.50	0.00	0.00	0.00	0.00	0.00	0.00	0	0	0	0	150.0000	0	0	0	0
2076	22.50	6.39	6.39	-4.32	1.0400	36.00	1	22.50	22.50	0.00	0.00	0.00	0.00	0.00	0.00	0	0	0	0	30.0000	0	0	0	0
2078	84.38	9.95	23.96	-16.20	1.0200	135.00	1	84.38	84.38	0.00	0.00	0.00	0.00	0.00	0.00	0	0	0	0	112.5000	0	0	0	0
2081	98.82	0.00	0.00	0.00	1.0000	274.50	1	98.82	98.82	0.00	0.00	0.00	0.00	0.00	0.00	0	0	0	0	0.0000	0	0	0	0
2083	6.59	10.18	10.18	-2.22	1.0200	24.00	1	20.00	6.00	0.00	0.00	0.00	0.00	0.00	0.00	0	0	0	0	20.0000	0	0	0	0
2084	0.00	0.00	10.18	-2.22	1.0200	24.00	0	20.00	6.00	0.00	0.00	0.00	0.00	0.00	0.00	0	0	0	0	20.0000	0	0	0	0
2085	0.00	0.00	20.36	-4.44	1.0200	48.00	0	40.00	12.00	0.00	0.00	0.00	0.00	0.00	0.00	0	0	0	0	40.0000	0	0	0	0
2087	13.50	7.88	11.71	-11.71	1.0000	37.50	1	13.50	13.50	0.00	0.00	0.00	0.00	0.00	0.00	0	0	0	0	0.0000	0	0	0	0
2087	205.15	0.00	0.00	0.00	1.0000	569.85	1	205.15	205.15	0.00	0.00	0.00	0.00	0.00	0.00	0	0	0	0	0.0000	0	0	0	0
2089	50.70	9.31	14.40	-9.73	1.0000	81.12	1	50.70	50.70	0.00	0.00	0.00	0.00	0.00	0.00	0	0	0	0	67.6000	0	0	0	0
2091	148.59	-26.78	128.88	-128.88	1.0000	412.75	1	148.59	148.59	0.00	0.00	0.00	0.00	0.00	0.00	0	0	0	0	0.0000	0	0	0	0
2093	11.06	9.59	9.59	-9.59	1.0000	30.71	1	11.06	11.06	0.00	0.00	0.00	0.00	0.00	0.00	0	0	0	0	0.0000	0	0	0	0
2094	0.00	0.00	2.13	-1.44	1.0000	12.00	0	10.00	3.00	0.00	0.00	0.00	0.00	0.00	0.00	0	0	0	0	10.0000	0	0	0	0
2094	11.06	0.57	9.59	-9.59	1.0000	30.71	1	11.06	11.06	0.00	0.00	0.00	0.00	0.00	0.00	0	0	0	0	0.0000	0	0	0	0
2095	0.00	0.00	16.93	-11.45	1.0000	95.40	0	79.50	23.85	0.00	0.00	0.00	0.00	0.00	0.00	0	0	0	0	79.5000	0	0	0	0
2095	11.06	1.11	9.59	-9.59	1.0000	30.71	1	11.06	11.06	0.00	0.00	0.00	0.00	0.00	0.00	0	0	0	0	0.0000	0	0	0	0
2099	7.50	2.13	2.13	-1.44	1.0200	12.00	1	7.50	7.50	0.00	0.00	0.00	0.00	0.00	0.00	0	0	0	0	10.0000	0	0	0	0
2100	112.50	31.95	31.95	-21.60	1.0200	180.00	1	112.50	112.50	0.00	0.00	0.00	0.00	0.00	0.00	0	0	0	0	150.0000	0	0	0	0
2103	0.00	0.00	136.28	-29.72	1.0000	321.28	0	267.73	80.32	0.00	0.00	0.00	0.00	0.00	0.00	0	0	0	0	267.7300	0	0	0	0
2104	0.00	0.00	136.28	-29.72	1.0000	321.28	0	267.73	80.32	0.00	0.00	0.00	0.00	0.00	0.00	0	0	0	0	267.7300	0	0	0	0
2105	0.00	0.00	136.28	-29.72	1.0000	321.28	0	267.73	80.32	0.00	0.00	0.00	0.00	0.00	0.00	0	0	0	0	267.7300	0	0	0	0
2109	94.59	71.77	82.04	-82.04	1.0000	262.75	1	94.59	94.59	0.00	0.00	0.00	0.00	0.00	0.00	0	0	0	0	0.0000	0	0	0	0
2113	71.45	0.00	0.00	0.00	1.0000	198.48	1	71.45	71.45	0.00	0.00	0.00	0.00	0.00	0.00	0	0	0	0	0.0000	0	0	0	0
2114	71.45	0.00	0.00	0.00	1.0000	198.48	1	71.45	71.45	0.00	0.00	0.00	0.00	0.00	0.00	0	0	0	0	0.0000	0	0	0	0
2115	0.00	0.00	94.02	-20.50	1.0000	221.66	0	184.72	55.41	0.00	0.00	0.00	0.00	0.00	0.00	0	0	0	0	184.7200	0	0	0	0
2115	71.45	0.00	0.00	0.00	1.0000	198.48	1	71.45	71.45	0.00	0.00	0.00	0.00	0.00	0.00	0	0	0	0	0.0000	0	0	0	0
2116	0.00	0.00	94.02	-20.50	1.0000	221.66	0	184.72	55.41	0.00	0.00	0.00	0.00	0.00	0.00	0	0	0	0	184.7200	0	0	0	0
2116	71.45	0.00	0.00	0.00	1.0000	198.48	1	71.45	71.45	0.00	0.00	0.00	0.00	0.00	0.00	0	0	0	0	0.0000	0	0	0	0
2117	0.00	0.00	94.02	-20.50	1.0000	221.66	0	184.72	55.41	0.00	0.00	0.00	0.00	0.00	0.00	0	0	0	0	184.7200	0	0	0	0
2117	71.45	0.00	0.00	0.00	1.0000	198.48	1	71.45	71.45	0.00	0.00	0.00	0.00	0.00	0.00	0	0	0	0	0.0000	0	0	0	0
2118	0.00	0.00	94.02	-20.50	1.0000	221.66	0	184.72	55.41	0.00	0.00	0.00	0.00	0.00	0.00	0	0	0	0	184.7200	0	0	0	0
2118	71.45	0.00	0.00	0.00	1.0000	198.48	1	71.45	71.45	0.00	0.00	0.00	0.00	0.00	0.00	0	0	0	0	0.0000	0	0	0	0
2119	0.00	0.00	94.02	-20.50	1.0000	221.66	0	184.72	55.41	0.00	0.00	0.00	0.00	0.00	0.00	0	0	0	0	184.7200	0	0	0	0
2119	71.45	0.00	0.00	0.00	1.0000	198.48	1	71.45	71.45	0.00	0.00	0.00	0.00	0.00	0.00	0	0	0	0	0.0000	0	0	0	0
2120	0.00	0.00	94.02	-20.50	1.0100	221.66	0	184.72	55.41	0.00	0.00	0.00	0.00	0.00	0.00	0	0	0	0	184.7200	0	0	0	0
2120	71.45	0.00	0.00	0.00	1.0100	198.48	1	71.45	71.45	0.00	0.00	0.00	0.00	0.00	0.00	0	0	0	0	0.0000	0	0	0	0
2123	136.28	-22.90	38.70	-26.16	1.0000	218.04	1	136.28	136.28	0.00	0.00	0.00	0.00	0.00	0.00	0	0	0	0	181.7000	0	0	0	0
2123	220.99	-22.90	191.68	-191.68	1.0000	613.88	1	220.99	220.99	0.00	0.00	0.00	0.00	0.00	0.00	0	0	0	0	0.0000	0	0	0	0
2127	216.45	61.47	61.47	-41.56	1.0400	346.32	1	216.45	216.45	0.00	0.00	0.00	0.00	0.00	0.00	0	0	0	0	288.6000	0	0	0	0
2130	118.17	-38.94	102.50	-102.50	1.0000	328.25	1	118.17	118.17	0.00	0.00	0.00	0.00	0.00	0.00	0	0	0	0	0.0000	0	0	0	0
2130	51.06	0.00	0.00	0.00	1.0000	141.83	1	51.06	51.06	0.00	0.00	0.00	0.00	0.00	0.00	0	0	0	0	0.0000	0	0	0	0
2131	118.17	-5.80	102.50	-102.50	1.0000	328.25	1	118.17	118.17	0.00	0.00	0.00	0.00	0.00	0.00	0	0	0	0	0.0000	0	0	0	0
2131	51.06	0.00	0.00	0.00	1.0000	141.83	1	51.06	51.06	0.00	0.00	0.00	0.00	0.00	0.00	0	0	0	0	0.0000	0	0	0	0
2132	118.17	-6.44	102.50	-102.50	1.0000	328.25	1	118.17	118.17	0.00	0.00	0.00	0.00	0.00	0.00	0	0	0	0	0.0000	0	0	0	0
2132	51.06	0.00	0.00	0.00	1.0000	141.83	1	51.06	51.06	0.00	0.00	0.00	0.00	0.00	0.00	0	0	0	0	0.0000	0	0	0	0
3004	28.13	0.38	7.99	-5.40	1.0000	45.00	1	28.13	28.13	0.00	0.00	0.00	0.00	0.00	0.00	0	0	0	0	37.5000	0	0	0	0
3017	127.13	36.10	36.10	-24.41	1.0100	203.40	1	127.13	127.13	0.00	0.00	0.00	0.00	0.00	0.00	0	0	0	0	169.5000	0	0	0	0
3020	112.50	31.95	31.95	-21.60	1.0300	180.00	1	112.50	112.50	0.00	0.00	0.00	0.00	0.00	0.00	0	0	0	0	150.0000	0	0	0	0
3024	89.78	77.87	77.87	-77.87	1.0000	249.38	1	89.78	89.78	0.00	0.00	0.00	0.00	0.00	0.00	0	0	0	0	0.0000	0	0	0	0
3028	150.00	42.60	42.60	-28.80	1.0400	240.00	1	150.00	150.00	0.00	0.00	0.00	0.00	0.00	0.00	0	0	0	0	200.0000	0	0	0	0
3034	97.87	27.80	27.80	-18.79	1.0300	156.60	1	97.87	97.87	0.00	0.00	0.00	0.00	0.00	0.00	0	0	0	0	130.5000	0	0	0	0
3039	156.75	44.52	44.52	-30.10	1.0400	250.80	1	156.75	156.75	0.00	0.00	0.00	0.00	0.00	0.00	0	0	0	0	209.0000	0	0	0	0
3041	33.79	29.30	29.30	-29.30	1.0000	93.85	1	33.79	33.79	0.00	0.00	0.00	0.00	0.00	0.00	0	0	0	0	0.0000	0	0	0	0
3042	33.79	29.30	29.30	-29.30	1.0000	93.85	1	33.79	33.79	0.00	0.00	0.00	0.00	0.00	0.00	0	0	0	0	0.0000	0	0	0	0
3043	0.00	0.00	0.66	-0.14	1.0400	1.56	0	1.30	0.39	0.00	0.00	0.00	0.00	0.00	0.00	0	0	0	0	1.3000	0	0	0	0
3043	33.79	29.30	29.30	-29.30	1.0400	93.85	1	33.79	33.79	0.00	0.00	0.00	0.00	0.00	0.00	0	0	0	0	0.0000	0	0	0	0
3044	0.00	0.00	45.50	-9.92	1.0400	107.28	0	89.40	26.82	0.00	0.00	0.00	0.00	0.00	0.00	0	0	0	0	89.4000	0	0	0	0
3044	33.79	29.30	29.30	-29.30	1.0400	93.85	1	33.79	33.79	0.00	0.00	0.00	0.00	0.00	0.00	0	0	0	0	0.0000	0	0	0	0
3045	0.00	0.00	227.52	-49.62	1.0400	536.40	0	447.00	134.10	0.00	0.00	0.00	0.00	0.00	0.00	0	0	0	0	447.0000	0	0	0	0
3045	33.79	29.30	29.30	-29.30	1.0400	93.85	1	33.79	33.79	0.00	0.00	0.00	0.00	0.00	0.00	0	0	0	0	0.0000	0	0	0	0
3048	180.75	51.33	51.33	-34.70	1.0400	289.20	1	180.75	180.75	0.00	0.00	0.00	0.00	0.00	0.00	0	0	0	0	241.0000	0	0	0	0
3049	90.72	0.00	0.00	0.00	1.0000	252.00	1	90.72	90.72	0.00	0.00	0.00	0.00	0.00	0.00	0	0	0	0	0.0000	0	0	0	0
3050	33.59	29.14	29.14	-29.14	1.0000	93.31	1	33.59	33.59	0.00	0.00	0.00	0.00	0.00	0.00	0	0	0	0	0.0000	0	0	0	0
3051	33.59	29.14	29.14	-29.14	1.0000	93.31	1	33.59	33.59	0.00	0.00	0.00	0.00	0.00	0.00	0	0	0	0	0.0000	0	0	0	0
3055	183.88	52.22	52.22	-35.30	1.0400	294.20	1	183.88	183.88	0.00	0.00	0.00	0.00	0.00	0.00	0	0	0	0	245.1700	0	0	0	0
3056	183.88	52.22	52.22	-35.30	1.0400	294.20	1	183.88	183.88	0.00	0.00	0.00	0.00	0.00	0.00	0	0	0	0	245.1700	0	0	0	0
3057	183.88	52.22	52.22	-35.30	1.0400	294.20	1	183.88	183.88	0.00	0.00	0.00	0.00	0.00	0.00	0	0	0	0	245.1700	0	0	0	0
3060	124.22	35.28	35.28	-23.85	1.0400	198.75	1	124.22	124.22	0.00	0.00	0.00	0.00	0.00	0.00	0	0	0	0	165.6300	0	0	0	0
3061	124.22	35.28	35.28	-23.85	1.0400	198.75	1	124.22	124.22	0.00	0.00	0.00	0.00	0.00	0.00	0	0	0	0	165.6300	0	0	0	0
3062	124.22	35.28	35.28	-23.85	1.0400	198.75	1	124.22	124.22	0.00	0.00	0.00	0.00	0.00	0.00	0	0	0	0	165.6300	0	0	0	0
3063	124.22	35.28	35.28	-23.85	1.0400	198.75	1	124.22	124.22	0.00	0.00	0.00	0.00	0.00	0.00	0	0	0	0	165.6300	0	0	0	0
3065	60.37	2.01	17.15	-11.59	1.0000	96.60	1	60.37	60.37	0.00	0.00	0.00	0.00	0.00	0.00	0	0	0	0	80.5000	0	0	0	0
3066	152.91	132.63	132.63	-132.63	1.0000	424.75	1	152.91	152.91	0.00	0.00	0.00	0.00	0.00	0.00	0	0	0	0	0.0000	0	0	0	0
3068	112.50	31.95	31.95	-21.60	1.0400	180.00	1	112.50	112.50	0.00	0.00	0.00	0.00	0.00	0.00	0	0	0	0	150.0000	0	0	0	0
3071	127.65	-9.65	36.25	-24.51	1.0000	204.24	1	127.65	127.65	0.00	0.00	0.00	0.00	0.00	0.00	0	0	0	0	170.2000	0	0	0	0
3074	74.85	-1.80	21.26	-14.37	1.0000	119.76	1	74.85	74.85	0.00	0.00	0.00	0.00	0.00	0.00	0	0	0	0	99.8000	0	0	0	0
3075	3.38	0.00	0.00	0.00	1.0000	9.38	1	3.38	3.38	0.00	0.00	0.00	0.00	0.00	0.00	0	0	0	0	0.0000	0	0	0	0
3076	71.68	0.00	0.00	0.00	1.0000	199.13	1	71.68	71.68	0.00	0.00	0.00	0.00	0.00	0.00	0	0	0	0	0.0000	0	0	0	0
3081	186.75	53.04	53.04	-35.86	1.0400	298.80	1	186.75	186.75	0.00	0.00	0.00	0.00	0.00	0.00	0	0	0	0	249.0000	0	0	0	0
3084	174.37	22.31	49.52	-33.48	1.0000	279.00	1	174.37	174.37	0.00	0.00	0.00	0.00	0.00	0.00	0	0	0	0	232.5000	0	0	0	0
3086	56.25	15.97	15.97	-10.80	1.0000	90.00	1	56.25	56.25	0.00	0.00	0.00	0.00	0.00	0.00	0	0	0	0	75.0000	0	0	0	0
3087	0.00	0.00	15.97	-10.80	1.0000	90.00	0	75.00	22.50	0.00	0.00	0.00	0.00	0.00	0.00	0	0	0	0	75.0000	0	0	0	0
3092	150.00	42.60	42.60	-28.80	1.0400	240.00	1	150.00	150.00	0.00	0.00	0.00	0.00	0.00	0.00	0	0	0	0	200.0000	0	0	0	0
3095	90.45	25.69	25.69	-17.37	1.0400	144.72	1	90.45	90.45	0.00	0.00	0.00	0.00	0.00	0.00	0	0	0	0	120.6000	0	0	0	0
3098	120.00	34.08	34.08	-23.04	1.0400	192.00	1	120.00	120.00	0.00	0.00	0.00	0.00	0.00	0.00	0	0	0	0	160.0000	0	0	0	0
3105	0.00	0.00	17.07	-0.74	1.0000	46.72	0	44.50	0.00	0.00	0.00	0.00	0.00	0.00	0.00	0	0	0	0	15.0000	0	0	0	0
3106	0.00	0.00	62.48	-2.69	1.0000	170.94	0	162.80	0.00	0.00	0.00	0.00	0.00	0.00	0.00	0	0	0	0	54.9000	0	0	0	0
3110	63.00	17.89	17.89	-12.10	1.0400	100.80	1	63.00	63.00	0.00	0.00	0.00	0.00	0.00	0.00	0	0	0	0	84.0000	0	0	0	0
3112	56.10	11.54	15.93	-10.77	1.0000	89.76	1	56.10	56.10	0.00	0.00	0.00	0.00	0.00	0.00	0	0	0	0	74.8000	0	0	0	0
3113	56.10	12.23	15.93	-10.77	1.0000	89.76	1	56.10	56.10	0.00	0.00	0.00	0.00	0.00	0.00	0	0	0	0	74.8000	0	0	0	0
3114	4.50	3.90	3.90	-3.90	1.0000	12.50	1	4.50	4.50	0.00	0.00	0.00	0.00	0.00	0.00	0	0	0	0	0.0000	0	0	0	0
3115	287.60	8.08	249.45	-249.45	1.0000	798.88	1	287.60	287.60	0.00	0.00	0.00	0.00	0.00	0.00	0	0	0	0	0.0000	0	0	0	0
3117	47.25	-2.40	13.42	-9.07	1.0000	75.60	1	47.25	47.25	0.00	0.00	0.00	0.00	0.00	0.00	0	0	0	0	63.0000	0	0	0	0
3118	90.00	-9.98	25.56	-17.28	1.0000	144.00	1	90.00	90.00	0.00	0.00	0.00	0.00	0.00	0.00	0	0	0	0	120.0000	0	0	0	0
...
];

%% generator cost data
mpc.gencost = [
2	0	0	4	0.0000	0.000	0.000	0.00
2	0	0	4	0.0000	0.000	0.000	0.00
2	0	0	4	0.0000	0.010	10.000	0.00
2	0	0	4	0.0000	0.000	0.000	0.00
2	0	0	4	0.0000	0.000	0.000	0.00
2	0	0	4	0.0000	0.010	10.000	0.00
2	0	0	4	0.0000	0.010	10.000	0.00
2	0	0	1	0	0	0	0
2	0	0	4	0.0000	0.000	0.000	0.00
2	0	0	4	0.0000	0.010	10.000	0.00
2	0	0	4	0.0000	0.000	0.000	0.00
2	0	0	4	0.0000	0.010	10.000	0.00
2	0	0	1	0	0	0	0
2	0	0	4	0.0000	0.000	0.000	0.00
2	0	0	4	0.0000	0.010	10.000	0.00
2	0	0	4	0.0000	0.010	10.000	0.00
2	0	0	4	0.0000	0.010	10.000	0.00
2	0	0	4	0.0000	0.010	10.000	0.00
2	0	0	4	0.0000	0.010	10.000	0.00
2	0	0	4	0.0000	0.000	0.000	0.00
2	0	0	4	0.0000	0.010	10.000	0.00
2	0	0	4	0.0000	0.000	0.000	0.00
2	0	0	4	0.0000	0.010	10.000	0.00
2	0	0	4	0.0000	0.010	10.000	0.00
2	0	0	4	0.0000	0.000	0.000	0.00
2	0	0	4	0.0000	0.010	10.000	0.00
2	0	0	4	0.0000	0.010	10.000	0.00
2	0	0	4	0.0000	0.000	0.000	0.00
2	0	0	4	0.0000	0.000	0.000	0.00
2	0	0	4	0.0000	0.010	10.000	0.00
2	0	0	4	0.0000	0.010	10.000	0.00
2	0	0	4	0.0000	0.001	18.641	1087.80
2	0	0	4	0.0000	0.001	18.641	1087.80
2	0	0	4	0.0000	0.001	17.464	734.10
2	0	0	4	0.0000	0.001	17.464	734.10
2	0	0	1	0	0	0	0
2	0	0	4	0.0000	0.001	17.464	734.10
2	0	0	4	0.0000	0.001	17.910	868.20
2	0	0	4	0.0000	0.010	10.000	0.00
2	0	0	4	0.0000	0.000	0.000	0.00
2	0	0	4	0.0000	0.001	17.046	608.40
2	0	0	4	0.0000	0.001	17.028	603.00
2	0	0	4	0.0000	0.010	10.000	0.00
2	0	0	4	0.0000	0.000	0.000	0.00
2	0	0	4	0.0000	0.010	10.000	0.00
2	0	0	4	0.0000	0.000	0.000	0.00
2	0	0	4	0.0000	0.010	10.000	0.00
2	0	0	4	0.0000	0.000	0.000	0.00
2	0	0	1	0	0	0	0
2	0	0	4	0.0000	0.000	0.000	0.00
2	0	0	4	0.0000	0.001	17.977	888.20
2	0	0	4	0.0000	0.001	17.977	888.20
2	0	0	4	0.0000	0.001	17.977	888.20
2	0	0	4	0.0000	0.001	17.977	888.20
2	0	0	4	0.0000	0.001	17.977	888.20
2	0	0	4	0.0000	0.001	17.977	888.20
2	0	0	4	0.0000	0.001	17.495	743.25
2	0	0	1	0	0	0	0
2	0	0	4	0.0000	0.001	17.495	743.25
2	0	0	4	0.0000	0.001	17.495	743.25
2	0	0	4	0.0000	0.001	18.448	1029.75
2	0	0	4	0.0000	0.000	0.000	0.00
2	0	0	4	0.0000	0.010	10.000	0.00
2	0	0	4	0.0000	0.010	10.000	0.00
2	0	0	4	0.0000	0.000	0.000	0.00
2	0	0	4	0.0000	0.010	10.000	0.00
2	0	0	4	0.0000	0.010	10.000	0.00
2	0	0	4	0.0000	0.010	10.000	0.00
2	0	0	4	0.0000	0.000	0.000	0.00
2	0	0	4	0.0000	0.010	10.000	0.00
2	0	0	4	0.0000	0.010	10.000	0.00
2	0	0	4	0.0000	0.000	0.000	0.00
2	0	0	4	0.0000	0.000	0.000	0.00
2	0	0	4	0.0000	0.002	27.494	1187.70
2	0	0	4	0.0000	0.002	27.494	1187.70
2	0	0	4	0.0000	0.002	27.494	1187.70
2	0	0	4	0.0000	0.010	10.000	0.00
2	0	0	4	0.0000	0.010	10.000	0.00
2	0	0	4	0.0000	0.010	10.000	0.00
2	0	0	4	0.0000	0.010	10.000	0.00
2	0	0	4	0.0000	0.000	0.000	0.00
2	0	0	4	0.0000	0.010	10.000	0.00
2	0	0	4	0.0000	0.010	10.000	0.00
2	0	0	4	0.0000	0.000	0.000	0.00
2	0	0	4	0.0000	0.001	16.989	724.99
2	0	0	4	0.0000	0.001	17.394	850.01
2	0	0	4	0.0000	0.010	10.000	0.00
2	0	0	4	0.0000	0.010	10.000	0.00
2	0	0	4	0.0000	0.010	10.000	0.00
2	0	0	4	0.0000	0.010	10.000	0.00
2	0	0	4	0.0000	0.010	10.000	0.00
2	0	0	4	0.0000	0.010	10.000	0.00
2	0	0	4	0.0000	0.010	10.000	0.00
2	0	0	4	0.0000	0.000	0.000	0.00
2	0	0	4	0.0000	0.010	10.000	0.00
2	0	0	4	0.0000	0.010	10.000	0.00
2	0	0	4	0.0000	0.010	10.000	0.00
2	0	0	4	0.0000	0.010	10.000	0.00
2	0	0	4	0.0000	0.010	10.000	0.00
2	0	0	4	0.0000	0.010	10.000	0.00
2	0	0	4	0.0000	0.002	17.268	236.16
2	0	0	4	0.0000	0.002	17.268	1398.51
2	0	0	4	0.0000	0.000	0.000	0.00
2	0	0	4	0.0000	0.000	0.000	0.00
2	0	0	4	0.0000	0.010	10.000	0.00
2	0	0	4	0.0000	0.010	10.000	0.00
2	0	0	4	0.0000	0.000	0.000	0.00
2	0	0	4	0.0000	0.000	0.000	0.00
2	0	0	4	0.0000	0.000	0.000	0.00
2	0	0	4	0.0000	0.010	10.000	0.00
2	0	0	4	0.0000	0.001	16.033	630.00
2	0	0	4	0.0000	0.001	16.033	630.00
2	0	0	4	0.0000	0.001	16.126	660.00
2	0	0	4	0.0000	0.010	10.000	0.00
2	0	0	4	0.0000	0.010	10.000	0.00
2	0	0	4	0.0000	0.000	0.000	0.00
2	0	0	4	0.0000	0.010	10.000	0.00
2	0	0	4	0.0000	0.010	10.000	0.00
2	0	0	4	0.0000	0.000	0.000	0.00
2	0	0	4	0.0000	0.010	10.000	0.00
2	0	0	4	0.0000	0.000	0.000	0.00
2	0	0	4	0.0000	0.010	10.000	0.00
2	0	0	4	0.0000	0.000	0.000	0.00
2	0	0	4	0.0000	0.000	0.000	0.00
2	0	0	4	0.0000	0.002	26.597	1001.59
2	0	0	4	0.0000	0.002	26.597	1001.59
2	0	0	4	0.0000	0.002	26.597	1001.59
2	0	0	4	0.0000	0.010	10.000	0.00
2	0	0	4	0.0000	0.010	10.000	0.00
2	0	0	4	0.0000	0.010	10.000	0.00
2	0	0	4	0.0000	0.001	17.482	877.08
2	0	0	4	0.0000	0.010	10.000	0.00
2	0	0	4	0.0000	0.001	17.482	877.08
2	0	0	4	0.0000	0.010	10.000	0.00
2	0	0	4	0.0000	0.001	17.482	877.08
2	0	0	4	0.0000	0.010	10.000	0.00
2	0	0	4	0.0000	0.001	17.482	877.08
2	0	0	4	0.0000	0.010	10.000	0.00
2	0	0	4	0.0000	0.001	17.482	877.08
2	0	0	4	0.0000	0.010	10.000	0.00
2	0	0	4	0.0000	0.001	17.482	877.08
2	0	0	4	0.0000	0.010	10.000	0.00
2	0	0	4	0.0000	0.000	0.000	0.00
2	0	0	4	0.0000	0.010	10.000	0.00
2	0	0	4	0.0000	0.000	0.000	0.00
2	0	0	4	0.0000	0.010	10.000	0.00
2	0	0	4	0.0000	0.010	10.000	0.00
2	0	0	4	0.0000	0.010	10.000	0.00
2	0	0	4	0.0000	0.010	10.000	0.00
2	0	0	4	0.0000	0.010	10.000	0.00
2	0	0	4	0.0000	0.010	10.000	0.00
2	0	0	4	0.0000	0.000	0.000	0.00
2	0	0	4	0.0000	0.000	0.000	0.00
2	0	0	4	0.0000	0.000	0.000	0.00
2	0	0	4	0.0000	0.010	10.000	0.00
2	0	0	4	0.0000	0.000	0.000	0.00
2	0	0	4	0.0000	0.000	0.000	0.00
2	0	0	4	0.0000	0.000	0.000	0.00
2	0	0	4	0.0000	0.010	10.000	0.00
2	0	0	4	0.0000	0.010	10.000	0.00
2	0	0	4	0.0000	0.002	19.197	601.95
2	0	0	4	0.0000	0.010	10.000	0.00
2	0	0	4	0.0000	0.002	19.693	734.10
2	0	0	4	0.0000	0.010	10.000	0.00
2	0	0	4	0.0000	0.002	21.704	1365.86
2	0	0	4	0.0000	0.010	10.000	0.00
2	0	0	4	0.0000	0.000	0.000	0.00
2	0	0	4	0.0000	0.010	10.000	0.00
2	0	0	4	0.0000	0.010	10.000	0.00
2	0	0	4	0.0000	0.010	10.000	0.00
2	0	0	4	0.0000	0.000	0.000	0.00
2	0	0	4	0.0000	0.000	0.000	0.00
2	0	0	4	0.0000	0.000	0.000	0.00
2	0	0	4	0.0000	0.000	0.000	0.00
2	0	0	4	0.0000	0.000	0.000	0.00
2	0	0	4	0.0000	0.000	0.000	0.00
2	0	0	4	0.0000	0.000	0.000	0.00
2	0	0	4	0.0000	0.000	0.000	0.00
2	0	0	4	0.0000	0.010	10.000	0.00
2	0	0	4	0.0000	0.000	0.000	0.00
2	0	0	4	0.0000	0.000	0.000	0.00
2	0	0	4	0.0000	0.000	0.000	0.00
2	0	0	4	0.0000	0.010	10.000	0.00
2	0	0	4	0.0000	0.010	10.000	0.00
2	0	0	4	0.0000	0.000	0.000	0.00
2	0	0	4	0.0000	0.000	0.000	0.00
2	0	0	4	0.0000	0.000	0.000	0.00
2	0	0	4	0.0000	0.000	0.000	0.00
2	0	0	4	0.0000	0.000	0.000	0.00
2	0	0	4	0.0000	0.000	0.000	0.00
2	0	0	4	0.0000	0.000	0.000	0.00
2	0	0	4	0.0000	0.000	0.000	0.00
2	0	0	4	0.0000	0.000	0.000	0.00
2	0	0	4	0.0000	0.000	0.000	0.00
2	0	0	4	0.0000	0.000	0.000	0.00
2	0	0	4	0.0000	0.000	0.000	0.00
2	0	0	4	0.0000	0.010	10.000	0.00
2	0	0	4	0.0000	0.010	10.000	0.00
2	0	0	4	0.0000	0.000	0.000	0.00
2	0	0	4	0.0000	0.000	0.000	0.00
...
];

%% branch data
mpc.branch = [
1001	1064	0.005240	0.035800	0.00609	221.00	0.00	0.00	0.00000	0.000	1	0.00	0.00	38.86	17.27	-38.76	-17.14	0	0	0	0
1001	1064	0.005240	0.035800	0.00609	221.00	0.00	0.00	0.00000	0.000	1	0.00	0.00	38.86	17.27	-38.76	-17.14	0	0	0	0
1001	1071	0.004350	0.028080	0.00536	221.00	0.00	0.00	0.00000	0.000	1	0.00	0.00	-52.37	-20.22	52.52	20.65	0	0	0	0
1001	1071	0.004350	0.028080	0.00536	221.00	0.00	0.00	0.00000	0.000	1	0.00	0.00	-52.37	-20.22	52.52	20.65	0	0	0	0
1002	1007	0.077760	0.466930	0.06336	98.00	0.00	0.00	0.00000	0.000	1	0.00	0.00	-19.13	-0.32	19.40	-4.71	0	0	0	0
1010	1002	0.055520	0.135700	0.01777	98.00	0.00	0.00	0.00000	0.000	1	0.00	0.00	0.92	2.18	-0.91	-4.05	0	0	0	0
1004	1003	0.004500	0.115820	0.00000	250.00	0.00	0.00	1.00000	0.000	1	0.00	0.00	-124.91	15.05	125.63	3.50	0	0	0	0
1004	1003	0.004500	0.115820	0.00000	250.00	0.00	0.00	1.00000	0.000	1	0.00	0.00	-124.91	15.05	125.63	3.50	0	0	0	0
1004	1003	0.004500	0.115820	0.00000	250.00	0.00	0.00	1.00000	0.000	1	0.00	0.00	-124.91	15.05	125.63	3.50	0	0	0	0
1022	1003	0.004850	0.020120	0.00341	221.00	0.00	0.00	0.00000	0.000	1	0.00	0.00	107.53	5.08	-106.97	-3.08	0	0	0	0
1022	1003	0.004850	0.020120	0.00341	221.00	0.00	0.00	0.00000	0.000	1	0.00	0.00	107.53	5.08	-106.97	-3.08	0	0	0	0
1055	1003	0.015740	0.037820	0.00513	98.00	0.00	0.00	0.00000	0.000	1	0.00	0.00	41.00	1.21	-40.74	-1.08	0	0	0	0
1055	1003	0.015740	0.037820	0.00513	98.00	0.00	0.00	0.00000	0.000	1	0.00	0.00	41.00	1.21	-40.74	-1.08	0	0	0	0
1055	1003	0.015740	0.037820	0.00513	98.00	0.00	0.00	0.00000	0.000	1	0.00	0.00	41.00	1.21	-40.74	-1.08	0	0	0	0
1055	1003	0.015740	0.037820	0.00513	98.00	0.00	0.00	0.00000	0.000	1	0.00	0.00	41.00	1.21	-40.74	-1.08	0	0	0	0
1004	3133	0.004200	0.030000	0.05500	523.00	0.00	0.00	0.00000	0.000	1	0.00	0.00	266.49	-0.11	-263.47	16.28	0	0	0	0
1004	3133	0.004200	0.030000	0.05500	523.00	0.00	0.00	0.00000	0.000	1	0.00	0.00	266.49	-0.11	-263.47	16.28	0	0	0	0
1006	1005	0.006020	0.147070	0.00000	42.00	0.00	0.00	1.00000	0.000	1	0.00	0.00	12.86	2.38	-12.85	-2.13	0	0	0	0
1006	1005	0.006020	0.147070	0.00000	42.00	0.00	0.00	1.00000	0.000	1	0.00	0.00	12.86	2.38	-12.85	-2.13	0	0	0	0
1025	1005	0.018420	0.082100	0.01204	149.00	0.00	0.00	0.00000	0.000	1	0.00	0.00	-72.65	14.34	73.67	-10.95	0	0	0	0
1025	1005	0.018420	0.082100	0.01204	149.00	0.00	0.00	0.00000	0.000	1	0.00	0.00	-72.65	14.34	73.67	-10.95	0	0	0	0
1025	1005	0.018420	0.082100	0.01204	149.00	0.00	0.00	0.00000	0.000	1	0.00	0.00	-72.65	14.34	73.67	-10.95	0	0	0	0
1025	1005	0.018420	0.082100	0.01204	149.00	0.00	0.00	0.00000	0.000	1	0.00	0.00	-72.65	14.34	73.67	-10.95	0	0	0	0
1025	1005	0.018420	0.082100	0.01204	149.00	0.00	0.00	0.00000	0.000	1	0.00	0.00	-72.65	14.34	73.67	-10.95	0	0	0	0
1005	1061	0.005990	0.024840	0.00422	221.00	0.00	0.00	0.00000	0.000	1	0.00	0.00	77.35	-34.40	-76.92	35.77	0	0	0	0
1005	1061	0.005990	0.024840	0.00422	221.00	0.00	0.00	0.00000	0.000	1	0.00	0.00	77.35	-34.40	-76.92	35.77	0	0	0	0
1067	1005	0.017110	0.041810	0.00548	98.00	0.00	0.00	0.00000	0.000	1	0.00	0.00	45.59	-11.24	-45.21	11.62	0	0	0	0
1067	1005	0.017110	0.041810	0.00548	98.00	0.00	0.00	0.00000	0.000	1	0.00	0.00	45.59	-11.24	-45.21	11.62	0	0	0	0
1067	1005	0.017110	0.041810	0.00548	98.00	0.00	0.00	0.00000	0.000	1	0.00	0.00	45.59	-11.24	-45.21	11.62	0	0	0	0
1067	1005	0.017110	0.041810	0.00548	98.00	0.00	0.00	0.00000	0.000	1	0.00	0.00	45.59	-11.24	-45.21	11.62	0	0	0	0
1067	1005	0.017110	0.041810	0.00548	98.00	0.00	0.00	0.00000	0.000	1	0.00	0.00	45.59	-11.24	-45.21	11.62	0	0	0	0
1067	1005	0.017110	0.041810	0.00548	98.00	0.00	0.00	0.00000	0.000	1	0.00	0.00	45.59	-11.24	-45.21	11.62	0	0	0	0
1067	1005	0.017110	0.041810	0.00548	98.00	0.00	0.00	0.00000	0.000	1	0.00	0.00	45.59	-11.24	-45.21	11.62	0	0	0	0
1067	1005	0.017110	0.041810	0.00548	98.00	0.00	0.00	0.00000	0.000	1	0.00	0.00	45.59	-11.24	-45.21	11.62	0	0	0	0
1067	1005	0.017110	0.041810	0.00548	98.00	0.00	0.00	0.00000	0.000	1	0.00	0.00	45.59	-11.24	-45.21	11.62	0	0	0	0
1067	1005	0.017110	0.041810	0.00548	98.00	0.00	0.00	0.00000	0.000	1	0.00	0.00	45.59	-11.24	-45.21	11.62	0	0	0	0
1067	1005	0.017110	0.041810	0.00548	98.00	0.00	0.00	0.00000	0.000	1	0.00	0.00	45.59	-11.24	-45.21	11.62	0	0	0	0
1007	1015	0.062240	0.373750	0.05072	98.00	0.00	0.00	0.00000	0.000	1	0.00	0.00	18.09	-5.21	-17.89	1.00	0	0	0	0
1031	1007	0.048030	0.274340	0.04123	98.00	0.00	0.00	0.00000	0.000	1	0.00	0.00	-55.20	1.75	56.66	2.35	0	0	0	0
1031	1007	0.048030	0.274340	0.04123	98.00	0.00	0.00	0.00000	0.000	1	0.00	0.00	-55.20	1.75	56.66	2.35	0	0	0	0
1031	1007	0.048030	0.274340	0.04123	98.00	0.00	0.00	0.00000	0.000	1	0.00	0.00	-55.20	1.75	56.66	2.35	0	0	0	0
1009	1008	0.004550	0.094710	0.00000	120.00	0.00	0.00	1.00000	0.000	1	0.00	0.00	61.87	9.40	-61.69	-5.69	0	0	0	0
1009	1008	0.004550	0.094710	0.00000	120.00	0.00	0.00	1.00000	0.000	0	0.00	0.00	0.00	0.00	0.00	0.00	0	0	0	0
1008	1032	0.045010	0.110020	0.01441	98.00	0.00	0.00	0.00000	0.000	1	0.00	0.00	30.52	6.15	-30.07	-6.44	0	0	0	0
1008	1032	0.045010	0.110020	0.01441	98.00	0.00	0.00	0.00000	0.000	1	0.00	0.00	30.52	6.15	-30.07	-6.44	0	0	0	0
1008	1032	0.045010	0.110020	0.01441	98.00	0.00	0.00	0.00000	0.000	1	0.00	0.00	30.52	6.15	-30.07	-6.44	0	0	0	0
1008	1032	0.045010	0.110020	0.01441	98.00	0.00	0.00	0.00000	0.000	0	0.00	0.00	0.00	0.00	0.00	0.00	0	0	0	0
1008	1069	0.008300	0.036280	0.00553	149.00	0.00	0.00	0.00000	0.000	1	0.00	0.00	-29.87	-12.76	29.95	12.60	0	0	0	0
1008	1069	0.008300	0.036280	0.00553	149.00	0.00	0.00	0.00000	0.000	0	0.00	0.00	0.00	0.00	0.00	0.00	0	0	0	0
1011	1010	0.007210	0.324600	0.00000	46.00	0.00	0.00	1.00000	0.000	1	0.00	0.00	10.00	0.00	-9.99	0.31	0	0	0	0
1010	1015	0.047030	0.282430	0.03833	98.00	0.00	0.00	0.00000	0.000	1	0.00	0.00	-8.10	-0.76	8.13	-3.13	0	0	0	0
1010	1030	0.061600	0.369900	0.05020	98.00	0.00	0.00	0.00000	0.000	1	0.00	0.00	17.18	1.12	-17.00	-5.25	0	0	0	0
1012	1087	0.049340	0.204690	0.03473	149.00	0.00	0.00	0.00000	0.000	1	0.00	0.00	-63.64	0.31	65.84	5.51	0	0	0	0
1012	1087	0.049340	0.204690	0.03473	149.00	0.00	0.00	0.00000	0.000	1	0.00	0.00	-63.64	0.31	65.84	5.51	0	0	0	0
1012	1087	0.049340	0.204690	0.03473	149.00	0.00	0.00	0.00000	0.000	1	0.00	0.00	-63.64	0.31	65.84	5.51	0	0	0	0
3051	1012	0.057100	0.249770	0.03804	149.00	0.00	0.00	0.00000	0.000	1	0.00	0.00	-59.90	5.06	62.35	2.30	0	0	0	0
3051	1012	0.057100	0.249770	0.03804	149.00	0.00	0.00	0.00000	0.000	1	0.00	0.00	-59.90	5.06	62.35	2.30	0	0	0	0
3051	1012	0.057100	0.249770	0.03804	149.00	0.00	0.00	0.00000	0.000	1	0.00	0.00	-59.90	5.06	62.35	2.30	0	0	0	0
1013	1031	0.045090	0.270780	0.03675	98.00	0.00	0.00	0.00000	0.000	1	0.00	0.00	-50.02	6.03	51.19	-2.62	0	0	0	0
1013	1031	0.045090	0.270780	0.03675	98.00	0.00	0.00	0.00000	0.000	1	0.00	0.00	-50.02	6.03	51.19	-2.62	0	0	0	0
1013	1031	0.045090	0.270780	0.03675	98.00	0.00	0.00	0.00000	0.000	1	0.00	0.00	-50.02	6.03	51.19	-2.62	0	0	0	0
1047	1013	0.009470	0.061170	0.01167	221.00	0.00	0.00	0.00000	0.000	1	0.00	0.00	-106.70	18.82	107.83	-12.64	0	0	0	0
1086	1013	0.079000	0.193110	0.02529	98.00	0.00	0.00	0.00000	0.000	1	0.00	0.00	-4.09	11.52	4.23	-13.72	0	0	0	0
1014	1047	0.035660	0.147940	0.02510	149.00	0.00	0.00	0.00000	0.000	1	0.00	0.00	62.49	-12.81	-61.02	16.42	0	0	0	0
1014	1047	0.035660	0.147940	0.02510	149.00	0.00	0.00	0.00000	0.000	1	0.00	0.00	62.49	-12.81	-61.02	16.42	0	0	0	0
1014	1083	0.041050	0.182930	0.02682	149.00	0.00	0.00	0.00000	0.000	1	0.00	0.00	-63.93	12.49	65.72	-7.19	0	0	0	0
1014	1083	0.041050	0.182930	0.02682	149.00	0.00	0.00	0.00000	0.000	1	0.00	0.00	-63.93	12.49	65.72	-7.19	0	0	0	0
1016	1034	0.018280	0.109760	0.01489	98.00	0.00	0.00	0.00000	0.000	1	0.00	0.00	52.89	-7.08	-52.37	8.71	0	0	0	0
1016	1034	0.018280	0.109760	0.01489	98.00	0.00	0.00	0.00000	0.000	1	0.00	0.00	52.89	-7.08	-52.37	8.71	0	0	0	0
1016	1034	0.018280	0.109760	0.01489	98.00	0.00	0.00	0.00000	0.000	1	0.00	0.00	52.89	-7.08	-52.37	8.71	0	0	0	0
1016	1034	0.018280	0.109760	0.01489	98.00	0.00	0.00	0.00000	0.000	1	0.00	0.00	52.89	-7.08	-52.37	8.71	0	0	0	0
1016	1034	0.018280	0.109760	0.01489	98.00	0.00	0.00	0.00000	0.000	1	0.00	0.00	52.89	-7.08	-52.37	8.71	0	0	0	0
1016	1034	0.018280	0.109760	0.01489	98.00	0.00	0.00	0.00000	0.000	1	0.00	0.00	52.89	-7.08	-52.37	8.71	0	0	0	0
1016	1034	0.018280	0.109760	0.01489	98.00	0.00	0.00	0.00000	0.000	1	0.00	0.00	52.89	-7.08	-52.37	8.71	0	0	0	0
1016	1034	0.018280	0.109760	0.01489	98.00	0.00	0.00	0.00000	0.000	1	0.00	0.00	52.89	-7.08	-52.37	8.71	0	0	0	0
1016	1034	0.018280	0.109760	0.01489	98.00	0.00	0.00	0.00000	0.000	1	0.00	0.00	52.89	-7.08	-52.37	8.71	0	0	0	0
1016	1034	0.018280	0.109760	0.01489	98.00	0.00	0.00	0.00000	0.000	1	0.00	0.00	52.89	-7.08	-52.37	8.71	0	0	0	0
1068	1016	0.027730	0.158370	0.02380	98.00	0.00	0.00	0.00000	0.000	1	0.00	0.00	-41.32	-9.07	41.84	9.71	0	0	0	0
1018	1017	0.032270	0.078870	0.01033	98.00	0.00	0.00	0.00000	0.000	1	0.00	0.00	30.64	0.79	-30.33	-1.02	0	0	0	0
1018	1017	0.032270	0.078870	0.01033	98.00	0.00	0.00	0.00000	0.000	1	0.00	0.00	30.64	0.79	-30.33	-1.02	0	0	0	0
1018	1017	0.032270	0.078870	0.01033	98.00	0.00	0.00	0.00000	0.000	1	0.00	0.00	30.64	0.79	-30.33	-1.02	0	0	0	0
1017	1029	0.032440	0.141880	0.02161	149.00	0.00	0.00	0.00000	0.000	1	0.00	0.00	-10.43	-14.60	10.53	12.93	0	0	0	0
1037	1017	0.007520	0.033520	0.00491	221.00	0.00	0.00	0.00000	0.000	1	0.00	0.00	-99.04	10.46	99.83	-7.40	0	0	0	0
1037	1017	0.007520	0.033520	0.00491	221.00	0.00	0.00	0.00000	0.000	1	0.00	0.00	-99.04	10.46	99.83	-7.40	0	0	0	0
1037	1017	0.007520	0.033520	0.00491	221.00	0.00	0.00	0.00000	0.000	1	0.00	0.00	-99.04	10.46	99.83	-7.40	0	0	0	0
1037	1017	0.007520	0.033520	0.00491	221.00	0.00	0.00	0.00000	0.000	1	0.00	0.00	-99.04	10.46	99.83	-7.40	0	0	0	0
1047	1017	0.036000	0.156000	0.02400	150.00	0.00	0.00	0.00000	0.000	1	0.00	0.00	65.95	-3.82	-64.35	8.42	0	0	0	0
1047	1017	0.036000	0.156000	0.02400	150.00	0.00	0.00	0.00000	0.000	1	0.00	0.00	65.95	-3.82	-64.35	8.42	0	0	0	0
1047	1017	0.036000	0.156000	0.02400	150.00	0.00	0.00	0.00000	0.000	1	0.00	0.00	65.95	-3.82	-64.35	8.42	0	0	0	0
1047	1017	0.036000	0.156000	0.02400	150.00	0.00	0.00	0.00000	0.000	1	0.00	0.00	65.95	-3.82	-64.35	8.42	0	0	0	0
1047	1017	0.036000	0.156000	0.02400	150.00	0.00	0.00	0.00000	0.000	1	0.00	0.00	65.95	-3.82	-64.35	8.42	0	0	0	0
1024	1018	0.010940	0.065720	0.00892	98.00	0.00	0.00	0.00000	0.000	1	0.00	0.00	30.77	0.55	-30.67	-0.79	0	0	0	0
1024	1018	0.010940	0.065720	0.00892	98.00	0.00	0.00	0.00000	0.000	1	0.00	0.00	30.77	0.55	-30.67	-0.79	0	0	0	0
1024	1018	0.010940	0.065720	0.00892	98.00	0.00	0.00	0.00000	0.000	1	0.00	0.00	30.77	0.55	-30.67	-0.79	0	0	0	0
1019	1040	0.049780	0.206510	0.03504	149.00	0.00	0.00	0.00000	0.000	1	0.00	0.00	-68.20	11.13	70.69	-4.24	0	0	0	0
1019	1040	0.049780	0.206510	0.03504	149.00	0.00	0.00	0.00000	0.000	1	0.00	0.00	-68.20	11.13	70.69	-4.24	0	0	0	0
1019	1040	0.049780	0.206510	0.03504	149.00	0.00	0.00	0.00000	0.000	1	0.00	0.00	-68.20	11.13	70.69	-4.24	0	0	0	0
1019	1040	0.049780	0.206510	0.03504	149.00	0.00	0.00	0.00000	0.000	1	0.00	0.00	-68.20	11.13	70.69	-4.24	0	0	0	0
1019	1040	0.049780	0.206510	0.03504	149.00	0.00	0.00	0.00000	0.000	1	0.00	0.00	-68.20	11.13	70.69	-4.24	0	0	0	0
1019	1040	0.049780	0.206510	0.03504	149.00	0.00	0.00	0.00000	0.000	1	0.00	0.00	-68.20	11.13	70.69	-4.24	0	0	0	0
1019	1040	0.049780	0.206510	0.03504	149.00	0.00	0.00	0.00000	0.000	1	0.00	0.00	-68.20	11.13	70.69	-4.24	0	0	0	0
1019	1045	0.015220	0.037200	0.00487	221.00	0.00	0.00	0.00000	0.000	1	0.00	0.00	72.38	14.07	-71.52	-12.43	0	0	0	0
1019	1045	0.015220	0.037200	0.00487	221.00	0.00	0.00	0.00000	0.000	1	0.00	0.00	72.38	14.07	-71.52	-12.43	0	0	0	0
1019	1071	0.004400	0.028000	0.00540	225.00	0.00	0.00	0.00000	0.000	1	0.00	0.00	108.62	2.11	-108.08	0.81	0	0	0	0
1071	1019	0.004400	0.028000	0.00540	225.00	0.00	0.00	0.00000	0.000	1	0.00	0.00	-108.08	0.81	108.62	2.11	0	0	0	0
1071	1019	0.004400	0.028000	0.00540	225.00	0.00	0.00	0.00000	0.000	1	0.00	0.00	-108.08	0.81	108.62	2.11	0	0	0	0
1019	1084	0.030000	0.160000	0.02500	220.00	0.00	0.00	0.00000	0.000	1	0.00	0.00	-73.55	7.72	75.26	-1.04	0	0	0	0
1019	1084	0.030000	0.160000	0.02500	220.00	0.00	0.00	0.00000	0.000	0	0.00	0.00	0.00	0.00	0.00	0.00	0	0	0	0
1021	1020	0.003270	0.078120	0.00000	250.00	0.00	0.00	1.00000	0.000	1	0.00	0.00	74.81	10.30	-74.63	-5.85	0	0	0	0
1021	1020	0.003270	0.078120	0.00000	250.00	0.00	0.00	1.00000	0.000	1	0.00	0.00	74.81	10.30	-74.63	-5.85	0	0	0	0
1025	1020	0.008280	0.034340	0.00583	149.00	0.00	0.00	0.00000	0.000	1	0.00	0.00	76.00	-12.97	-75.50	14.46	0	0	0	0
1025	1020	0.008280	0.034340	0.00583	149.00	0.00	0.00	0.00000	0.000	1	0.00	0.00	76.00	-12.97	-75.50	14.46	0	0	0	0
1025	1020	0.008280	0.034340	0.00583	149.00	0.00	0.00	0.00000	0.000	1	0.00	0.00	76.00	-12.97	-75.50	14.46	0	0	0	0
1025	1020	0.008280	0.034340	0.00583	149.00	0.00	0.00	0.00000	0.000	1	0.00	0.00	76.00	-12.97	-75.50	14.46	0	0	0	0
...